*SPEF "IEEE 1481-1999"
*DESIGN "adder_top"
*DATE "Mon May 16 14:26:22 2022"
*VENDOR "Synopsys Inc."
*PROGRAM "StarRC"
*VERSION "Q-2019.12-SP5-3"
*DESIGN_FLOW "PIN_CAP NONE" "NAME_SCOPE LOCAL"
*DIVIDER /
*DELIMITER :
*BUS_DELIMITER []
*T_UNIT 1.0 NS
*C_UNIT 1.0 FF
*R_UNIT 1.0 OHM
*L_UNIT 1.0 HENRY

// COMMENTS

// CORNER_NAME 
// OPERATING_TEMPERATURE 25
// GLOBAL_TEMPERATURE 25
// TCAD_GRD_FILE /home/user/PDK/BE/StarRCXT/StarRCXT_HL18G_LPE_S3.7_a/StarRCXT_HL18G_STD_LPE_S3.7_a/StarRCXT_HL18G_M15_PnRDB_S3.7_a/HL18G_L28_STD_5LM_worstRC.nxtgrd
//   TCAD_TIME_STAMP Wed Feb 13 23:51:12 2013
//   TCADGRD_VERSION 43
// galaxy_comments_begin
//   local_nodeid
// galaxy_comments_end

*NAME_MAP
*460 carry_out
*461 carry_in
*462 rst_n
*463 clk
*464 sum_out[15]
*465 sum_out[14]
*466 sum_out[13]
*467 sum_out[12]
*468 sum_out[11]
*469 sum_out[10]
*470 sum_out[9]
*471 sum_out[8]
*472 sum_out[7]
*473 sum_out[6]
*474 sum_out[5]
*475 sum_out[4]
*476 sum_out[3]
*477 sum_out[2]
*478 sum_out[1]
*479 sum_out[0]
*480 b_in[15]
*481 b_in[14]
*482 b_in[13]
*483 b_in[12]
*484 b_in[11]
*485 b_in[10]
*486 b_in[9]
*487 b_in[8]
*488 b_in[7]
*489 b_in[6]
*490 b_in[5]
*491 b_in[4]
*492 b_in[3]
*493 b_in[2]
*494 b_in[1]
*495 b_in[0]
*496 a_in[15]
*497 a_in[14]
*498 a_in[13]
*499 a_in[12]
*500 a_in[11]
*501 a_in[10]
*502 a_in[9]
*503 a_in[8]
*504 a_in[7]
*505 a_in[6]
*506 a_in[5]
*507 a_in[4]
*508 a_in[3]
*509 a_in[2]
*510 a_in[1]
*511 a_in[0]
*512 CLKINVX8_G1B1I1
*513 CLKINVX8_G1B1I2
*514 CLKINVX8_G1B1I3
*515 CLKINVX8_G1B1I4
*516 CLKINVX8_G1B1I5
*517 CLKINVX8_G1B2I1
*518 U1
*519 U10
*520 U11
*521 U12
*522 U13
*523 U14
*524 U15
*525 U16
*526 U17
*527 U18
*528 U19
*529 U2
*530 U3
*531 U4
*532 U5
*533 U6
*534 U7
*535 U8
*536 U9
*537 a_reg_d_reg_0_
*538 a_reg_d_reg_10_
*539 a_reg_d_reg_11_
*540 a_reg_d_reg_12_
*541 a_reg_d_reg_13_
*542 a_reg_d_reg_14_
*543 a_reg_d_reg_15_
*544 a_reg_d_reg_1_
*545 a_reg_d_reg_2_
*546 a_reg_d_reg_3_
*547 a_reg_d_reg_4_
*548 a_reg_d_reg_5_
*549 a_reg_d_reg_6_
*550 a_reg_d_reg_7_
*551 a_reg_d_reg_8_
*552 a_reg_d_reg_9_
*553 a_reg_reg_0_
*554 a_reg_reg_10_
*555 a_reg_reg_11_
*556 a_reg_reg_12_
*557 a_reg_reg_13_
*558 a_reg_reg_14_
*559 a_reg_reg_15_
*560 a_reg_reg_1_
*561 a_reg_reg_2_
*562 a_reg_reg_3_
*563 a_reg_reg_4_
*564 a_reg_reg_5_
*565 a_reg_reg_6_
*566 a_reg_reg_7_
*567 a_reg_reg_8_
*568 a_reg_reg_9_
*569 b_reg_d2_reg_0_
*570 b_reg_d2_reg_10_
*571 b_reg_d2_reg_11_
*572 b_reg_d2_reg_12_
*573 b_reg_d2_reg_13_
*574 b_reg_d2_reg_14_
*575 b_reg_d2_reg_15_
*576 b_reg_d2_reg_1_
*577 b_reg_d2_reg_2_
*578 b_reg_d2_reg_3_
*579 b_reg_d2_reg_4_
*580 b_reg_d2_reg_5_
*581 b_reg_d2_reg_6_
*582 b_reg_d2_reg_7_
*583 b_reg_d2_reg_8_
*584 b_reg_d2_reg_9_
*585 b_reg_d_reg_0_
*586 b_reg_d_reg_10_
*587 b_reg_d_reg_11_
*588 b_reg_d_reg_12_
*589 b_reg_d_reg_13_
*590 b_reg_d_reg_14_
*591 b_reg_d_reg_15_
*592 b_reg_d_reg_1_
*593 b_reg_d_reg_2_
*594 b_reg_d_reg_3_
*595 b_reg_d_reg_4_
*596 b_reg_d_reg_5_
*597 b_reg_d_reg_6_
*598 b_reg_d_reg_7_
*599 b_reg_d_reg_8_
*600 b_reg_d_reg_9_
*601 b_reg_reg_0_
*602 b_reg_reg_10_
*603 b_reg_reg_11_
*604 b_reg_reg_12_
*605 b_reg_reg_13_
*606 b_reg_reg_14_
*607 b_reg_reg_15_
*608 b_reg_reg_1_
*609 b_reg_reg_2_
*610 b_reg_reg_3_
*611 b_reg_reg_4_
*612 b_reg_reg_5_
*613 b_reg_reg_6_
*614 b_reg_reg_7_
*615 b_reg_reg_8_
*616 b_reg_reg_9_
*617 c_in_reg_reg
*618 u1_cla16/carry_out_reg
*619 u1_cla16/sum_out_reg_0_
*620 u1_cla16/sum_out_reg_10_
*621 u1_cla16/sum_out_reg_11_
*622 u1_cla16/sum_out_reg_12_
*623 u1_cla16/sum_out_reg_13_
*624 u1_cla16/sum_out_reg_14_
*625 u1_cla16/sum_out_reg_15_
*626 u1_cla16/sum_out_reg_1_
*627 u1_cla16/sum_out_reg_2_
*628 u1_cla16/sum_out_reg_3_
*629 u1_cla16/sum_out_reg_4_
*630 u1_cla16/sum_out_reg_5_
*631 u1_cla16/sum_out_reg_6_
*632 u1_cla16/sum_out_reg_7_
*633 u1_cla16/sum_out_reg_8_
*634 u1_cla16/sum_out_reg_9_
*635 u1_cla16/u0_cla_4bit/U1
*636 u1_cla16/u0_cla_4bit/U10
*637 u1_cla16/u0_cla_4bit/U11
*638 u1_cla16/u0_cla_4bit/U12
*639 u1_cla16/u0_cla_4bit/U2
*640 u1_cla16/u0_cla_4bit/U3
*641 u1_cla16/u0_cla_4bit/U4
*642 u1_cla16/u0_cla_4bit/U5
*643 u1_cla16/u0_cla_4bit/U6
*644 u1_cla16/u0_cla_4bit/U7
*645 u1_cla16/u0_cla_4bit/U8
*646 u1_cla16/u0_cla_4bit/U9
*647 u1_cla16/u0_cla_4bit/u4_cla_logic_bit/U1
*648 u1_cla16/u0_cla_4bit/u4_cla_logic_bit/U10
*649 u1_cla16/u0_cla_4bit/u4_cla_logic_bit/U11
*650 u1_cla16/u0_cla_4bit/u4_cla_logic_bit/U2
*651 u1_cla16/u0_cla_4bit/u4_cla_logic_bit/U3
*652 u1_cla16/u0_cla_4bit/u4_cla_logic_bit/U4
*653 u1_cla16/u0_cla_4bit/u4_cla_logic_bit/U5
*654 u1_cla16/u0_cla_4bit/u4_cla_logic_bit/U6
*655 u1_cla16/u0_cla_4bit/u4_cla_logic_bit/U7
*656 u1_cla16/u0_cla_4bit/u4_cla_logic_bit/U8
*657 u1_cla16/u0_cla_4bit/u4_cla_logic_bit/U9
*658 u1_cla16/u1_cla_4bit/U1
*659 u1_cla16/u1_cla_4bit/U10
*660 u1_cla16/u1_cla_4bit/U11
*661 u1_cla16/u1_cla_4bit/U12
*662 u1_cla16/u1_cla_4bit/U2
*663 u1_cla16/u1_cla_4bit/U3
*664 u1_cla16/u1_cla_4bit/U4
*665 u1_cla16/u1_cla_4bit/U5
*666 u1_cla16/u1_cla_4bit/U6
*667 u1_cla16/u1_cla_4bit/U7
*668 u1_cla16/u1_cla_4bit/U8
*669 u1_cla16/u1_cla_4bit/U9
*670 u1_cla16/u1_cla_4bit/u4_cla_logic_bit/U1
*671 u1_cla16/u1_cla_4bit/u4_cla_logic_bit/U10
*672 u1_cla16/u1_cla_4bit/u4_cla_logic_bit/U11
*673 u1_cla16/u1_cla_4bit/u4_cla_logic_bit/U2
*674 u1_cla16/u1_cla_4bit/u4_cla_logic_bit/U3
*675 u1_cla16/u1_cla_4bit/u4_cla_logic_bit/U4
*676 u1_cla16/u1_cla_4bit/u4_cla_logic_bit/U5
*677 u1_cla16/u1_cla_4bit/u4_cla_logic_bit/U6
*678 u1_cla16/u1_cla_4bit/u4_cla_logic_bit/U7
*679 u1_cla16/u1_cla_4bit/u4_cla_logic_bit/U8
*680 u1_cla16/u1_cla_4bit/u4_cla_logic_bit/U9
*681 u1_cla16/u2_cla_4bit/U1
*682 u1_cla16/u2_cla_4bit/U10
*683 u1_cla16/u2_cla_4bit/U11
*684 u1_cla16/u2_cla_4bit/U12
*685 u1_cla16/u2_cla_4bit/U2
*686 u1_cla16/u2_cla_4bit/U3
*687 u1_cla16/u2_cla_4bit/U4
*688 u1_cla16/u2_cla_4bit/U5
*689 u1_cla16/u2_cla_4bit/U6
*690 u1_cla16/u2_cla_4bit/U7
*691 u1_cla16/u2_cla_4bit/U8
*692 u1_cla16/u2_cla_4bit/U9
*693 u1_cla16/u2_cla_4bit/u4_cla_logic_bit/U1
*694 u1_cla16/u2_cla_4bit/u4_cla_logic_bit/U10
*695 u1_cla16/u2_cla_4bit/u4_cla_logic_bit/U11
*696 u1_cla16/u2_cla_4bit/u4_cla_logic_bit/U2
*697 u1_cla16/u2_cla_4bit/u4_cla_logic_bit/U3
*698 u1_cla16/u2_cla_4bit/u4_cla_logic_bit/U4
*699 u1_cla16/u2_cla_4bit/u4_cla_logic_bit/U5
*700 u1_cla16/u2_cla_4bit/u4_cla_logic_bit/U6
*701 u1_cla16/u2_cla_4bit/u4_cla_logic_bit/U7
*702 u1_cla16/u2_cla_4bit/u4_cla_logic_bit/U8
*703 u1_cla16/u2_cla_4bit/u4_cla_logic_bit/U9
*704 u1_cla16/u3_cla_4bit/U1
*705 u1_cla16/u3_cla_4bit/U10
*706 u1_cla16/u3_cla_4bit/U11
*707 u1_cla16/u3_cla_4bit/U12
*708 u1_cla16/u3_cla_4bit/U2
*709 u1_cla16/u3_cla_4bit/U3
*710 u1_cla16/u3_cla_4bit/U4
*711 u1_cla16/u3_cla_4bit/U5
*712 u1_cla16/u3_cla_4bit/U6
*713 u1_cla16/u3_cla_4bit/U7
*714 u1_cla16/u3_cla_4bit/U8
*715 u1_cla16/u3_cla_4bit/U9
*716 u1_cla16/u3_cla_4bit/u4_cla_logic_bit/U1
*717 u1_cla16/u3_cla_4bit/u4_cla_logic_bit/U10
*718 u1_cla16/u3_cla_4bit/u4_cla_logic_bit/U11
*719 u1_cla16/u3_cla_4bit/u4_cla_logic_bit/U2
*720 u1_cla16/u3_cla_4bit/u4_cla_logic_bit/U3
*721 u1_cla16/u3_cla_4bit/u4_cla_logic_bit/U4
*722 u1_cla16/u3_cla_4bit/u4_cla_logic_bit/U5
*723 u1_cla16/u3_cla_4bit/u4_cla_logic_bit/U6
*724 u1_cla16/u3_cla_4bit/u4_cla_logic_bit/U7
*725 u1_cla16/u3_cla_4bit/u4_cla_logic_bit/U8
*726 u1_cla16/u3_cla_4bit/u4_cla_logic_bit/U9
*727 u1_cla16/u4_cla_logic/U1
*728 u1_cla16/u4_cla_logic/U2
*729 u1_cla16/u4_cla_logic/U3
*730 u1_cla16/u4_cla_logic/U4
*731 u1_cla16/u4_cla_logic/U5
*732 u1_cla16/u4_cla_logic/U6
*733 u1_cla16/u4_cla_logic/U7
*734 u1_cla16/u4_cla_logic/U8
*735 u2_cla16/carry_out_reg
*736 u2_cla16/sum_out_reg_0_
*737 u2_cla16/sum_out_reg_10_
*738 u2_cla16/sum_out_reg_11_
*739 u2_cla16/sum_out_reg_12_
*740 u2_cla16/sum_out_reg_13_
*741 u2_cla16/sum_out_reg_14_
*742 u2_cla16/sum_out_reg_15_
*743 u2_cla16/sum_out_reg_1_
*744 u2_cla16/sum_out_reg_2_
*745 u2_cla16/sum_out_reg_3_
*746 u2_cla16/sum_out_reg_4_
*747 u2_cla16/sum_out_reg_5_
*748 u2_cla16/sum_out_reg_6_
*749 u2_cla16/sum_out_reg_7_
*750 u2_cla16/sum_out_reg_8_
*751 u2_cla16/sum_out_reg_9_
*752 u2_cla16/u0_cla_4bit/U1
*753 u2_cla16/u0_cla_4bit/U10
*754 u2_cla16/u0_cla_4bit/U11
*755 u2_cla16/u0_cla_4bit/U12
*756 u2_cla16/u0_cla_4bit/U2
*757 u2_cla16/u0_cla_4bit/U3
*758 u2_cla16/u0_cla_4bit/U4
*759 u2_cla16/u0_cla_4bit/U5
*760 u2_cla16/u0_cla_4bit/U6
*761 u2_cla16/u0_cla_4bit/U7
*762 u2_cla16/u0_cla_4bit/U8
*763 u2_cla16/u0_cla_4bit/U9
*764 u2_cla16/u0_cla_4bit/u4_cla_logic_bit/U1
*765 u2_cla16/u0_cla_4bit/u4_cla_logic_bit/U10
*766 u2_cla16/u0_cla_4bit/u4_cla_logic_bit/U11
*767 u2_cla16/u0_cla_4bit/u4_cla_logic_bit/U2
*768 u2_cla16/u0_cla_4bit/u4_cla_logic_bit/U3
*769 u2_cla16/u0_cla_4bit/u4_cla_logic_bit/U4
*770 u2_cla16/u0_cla_4bit/u4_cla_logic_bit/U5
*771 u2_cla16/u0_cla_4bit/u4_cla_logic_bit/U6
*772 u2_cla16/u0_cla_4bit/u4_cla_logic_bit/U7
*773 u2_cla16/u0_cla_4bit/u4_cla_logic_bit/U8
*774 u2_cla16/u0_cla_4bit/u4_cla_logic_bit/U9
*775 u2_cla16/u1_cla_4bit/U1
*776 u2_cla16/u1_cla_4bit/U10
*777 u2_cla16/u1_cla_4bit/U11
*778 u2_cla16/u1_cla_4bit/U12
*779 u2_cla16/u1_cla_4bit/U2
*780 u2_cla16/u1_cla_4bit/U3
*781 u2_cla16/u1_cla_4bit/U4
*782 u2_cla16/u1_cla_4bit/U5
*783 u2_cla16/u1_cla_4bit/U6
*784 u2_cla16/u1_cla_4bit/U7
*785 u2_cla16/u1_cla_4bit/U8
*786 u2_cla16/u1_cla_4bit/U9
*787 u2_cla16/u1_cla_4bit/u4_cla_logic_bit/U1
*788 u2_cla16/u1_cla_4bit/u4_cla_logic_bit/U10
*789 u2_cla16/u1_cla_4bit/u4_cla_logic_bit/U11
*790 u2_cla16/u1_cla_4bit/u4_cla_logic_bit/U2
*791 u2_cla16/u1_cla_4bit/u4_cla_logic_bit/U3
*792 u2_cla16/u1_cla_4bit/u4_cla_logic_bit/U4
*793 u2_cla16/u1_cla_4bit/u4_cla_logic_bit/U5
*794 u2_cla16/u1_cla_4bit/u4_cla_logic_bit/U6
*795 u2_cla16/u1_cla_4bit/u4_cla_logic_bit/U7
*796 u2_cla16/u1_cla_4bit/u4_cla_logic_bit/U8
*797 u2_cla16/u1_cla_4bit/u4_cla_logic_bit/U9
*798 u2_cla16/u2_cla_4bit/U1
*799 u2_cla16/u2_cla_4bit/U10
*800 u2_cla16/u2_cla_4bit/U11
*801 u2_cla16/u2_cla_4bit/U12
*802 u2_cla16/u2_cla_4bit/U2
*803 u2_cla16/u2_cla_4bit/U3
*804 u2_cla16/u2_cla_4bit/U4
*805 u2_cla16/u2_cla_4bit/U5
*806 u2_cla16/u2_cla_4bit/U6
*807 u2_cla16/u2_cla_4bit/U7
*808 u2_cla16/u2_cla_4bit/U8
*809 u2_cla16/u2_cla_4bit/U9
*810 u2_cla16/u2_cla_4bit/u4_cla_logic_bit/U1
*811 u2_cla16/u2_cla_4bit/u4_cla_logic_bit/U10
*812 u2_cla16/u2_cla_4bit/u4_cla_logic_bit/U11
*813 u2_cla16/u2_cla_4bit/u4_cla_logic_bit/U2
*814 u2_cla16/u2_cla_4bit/u4_cla_logic_bit/U3
*815 u2_cla16/u2_cla_4bit/u4_cla_logic_bit/U4
*816 u2_cla16/u2_cla_4bit/u4_cla_logic_bit/U5
*817 u2_cla16/u2_cla_4bit/u4_cla_logic_bit/U6
*818 u2_cla16/u2_cla_4bit/u4_cla_logic_bit/U7
*819 u2_cla16/u2_cla_4bit/u4_cla_logic_bit/U8
*820 u2_cla16/u2_cla_4bit/u4_cla_logic_bit/U9
*821 u2_cla16/u3_cla_4bit/U1
*822 u2_cla16/u3_cla_4bit/U10
*823 u2_cla16/u3_cla_4bit/U11
*824 u2_cla16/u3_cla_4bit/U12
*825 u2_cla16/u3_cla_4bit/U2
*826 u2_cla16/u3_cla_4bit/U3
*827 u2_cla16/u3_cla_4bit/U4
*828 u2_cla16/u3_cla_4bit/U5
*829 u2_cla16/u3_cla_4bit/U6
*830 u2_cla16/u3_cla_4bit/U7
*831 u2_cla16/u3_cla_4bit/U8
*832 u2_cla16/u3_cla_4bit/U9
*833 u2_cla16/u3_cla_4bit/u4_cla_logic_bit/U1
*834 u2_cla16/u3_cla_4bit/u4_cla_logic_bit/U10
*835 u2_cla16/u3_cla_4bit/u4_cla_logic_bit/U11
*836 u2_cla16/u3_cla_4bit/u4_cla_logic_bit/U2
*837 u2_cla16/u3_cla_4bit/u4_cla_logic_bit/U3
*838 u2_cla16/u3_cla_4bit/u4_cla_logic_bit/U4
*839 u2_cla16/u3_cla_4bit/u4_cla_logic_bit/U5
*840 u2_cla16/u3_cla_4bit/u4_cla_logic_bit/U6
*841 u2_cla16/u3_cla_4bit/u4_cla_logic_bit/U7
*842 u2_cla16/u3_cla_4bit/u4_cla_logic_bit/U8
*843 u2_cla16/u3_cla_4bit/u4_cla_logic_bit/U9
*844 u2_cla16/u4_cla_logic/U1
*845 u2_cla16/u4_cla_logic/U2
*846 u2_cla16/u4_cla_logic/U3
*847 u2_cla16/u4_cla_logic/U4
*848 u2_cla16/u4_cla_logic/U5
*849 u2_cla16/u4_cla_logic/U6
*850 u2_cla16/u4_cla_logic/U7
*851 u2_cla16/u4_cla_logic/U8
*852 u_rca16/carry_out_reg
*853 u_rca16/sum_out_reg_0_
*854 u_rca16/sum_out_reg_10_
*855 u_rca16/sum_out_reg_11_
*856 u_rca16/sum_out_reg_12_
*857 u_rca16/sum_out_reg_13_
*858 u_rca16/sum_out_reg_14_
*859 u_rca16/sum_out_reg_15_
*860 u_rca16/sum_out_reg_1_
*861 u_rca16/sum_out_reg_2_
*862 u_rca16/sum_out_reg_3_
*863 u_rca16/sum_out_reg_4_
*864 u_rca16/sum_out_reg_5_
*865 u_rca16/sum_out_reg_6_
*866 u_rca16/sum_out_reg_7_
*867 u_rca16/sum_out_reg_8_
*868 u_rca16/sum_out_reg_9_
*869 u_rca16/u0/U1
*870 u_rca16/u0/U2
*871 u_rca16/u0/U3
*872 u_rca16/u0/U4
*873 u_rca16/u1/U1
*874 u_rca16/u1/U2
*875 u_rca16/u1/U3
*876 u_rca16/u1/U4
*877 u_rca16/u10/U1
*878 u_rca16/u10/U2
*879 u_rca16/u10/U3
*880 u_rca16/u10/U4
*881 u_rca16/u11/U1
*882 u_rca16/u11/U2
*883 u_rca16/u11/U3
*884 u_rca16/u11/U4
*885 u_rca16/u12/U1
*886 u_rca16/u12/U2
*887 u_rca16/u12/U3
*888 u_rca16/u12/U4
*889 u_rca16/u13/U1
*890 u_rca16/u13/U2
*891 u_rca16/u13/U3
*892 u_rca16/u13/U4
*893 u_rca16/u14/U1
*894 u_rca16/u14/U2
*895 u_rca16/u14/U3
*896 u_rca16/u14/U4
*897 u_rca16/u15/U1
*898 u_rca16/u15/U2
*899 u_rca16/u15/U3
*900 u_rca16/u15/U4
*901 u_rca16/u2/U1
*902 u_rca16/u2/U2
*903 u_rca16/u2/U3
*904 u_rca16/u2/U4
*905 u_rca16/u3/U1
*906 u_rca16/u3/U2
*907 u_rca16/u3/U3
*908 u_rca16/u3/U4
*909 u_rca16/u4/U1
*910 u_rca16/u4/U2
*911 u_rca16/u4/U3
*912 u_rca16/u4/U4
*913 u_rca16/u5/U1
*914 u_rca16/u5/U2
*915 u_rca16/u5/U3
*916 u_rca16/u5/U4
*917 u_rca16/u6/U1
*918 u_rca16/u6/U2
*919 u_rca16/u6/U3
*920 u_rca16/u6/U4
*921 u_rca16/u7/U1
*922 u_rca16/u7/U2
*923 u_rca16/u7/U3
*924 u_rca16/u7/U4
*925 u_rca16/u8/U1
*926 u_rca16/u8/U2
*927 u_rca16/u8/U3
*928 u_rca16/u8/U4
*929 u_rca16/u9/U1
*930 u_rca16/u9/U2
*931 u_rca16/u9/U3
*932 u_rca16/u9/U4
*1 carry_out
*2 carry_in
*3 rst_n
*4 clk
*5 sum_out[15]
*6 sum_out[14]
*7 sum_out[13]
*8 sum_out[12]
*9 sum_out[11]
*10 sum_out[10]
*11 sum_out[9]
*12 sum_out[8]
*13 sum_out[7]
*14 sum_out[6]
*15 sum_out[5]
*16 sum_out[4]
*17 sum_out[3]
*18 sum_out[2]
*19 sum_out[1]
*20 sum_out[0]
*21 b_in[15]
*22 b_in[14]
*23 b_in[13]
*24 b_in[12]
*25 b_in[11]
*26 b_in[10]
*27 b_in[9]
*28 b_in[8]
*29 b_in[7]
*30 b_in[6]
*31 b_in[5]
*32 b_in[4]
*33 b_in[3]
*34 b_in[2]
*35 b_in[1]
*36 b_in[0]
*37 a_in[15]
*38 a_in[14]
*39 a_in[13]
*40 a_in[12]
*41 a_in[11]
*42 a_in[10]
*43 a_in[9]
*44 a_in[8]
*45 a_in[7]
*46 a_in[6]
*47 a_in[5]
*48 a_in[4]
*49 a_in[3]
*50 a_in[2]
*51 a_in[1]
*52 a_in[0]
*56 a_reg[0]
*57 a_reg[10]
*58 a_reg[11]
*59 a_reg[12]
*60 a_reg[13]
*61 a_reg[14]
*62 a_reg[15]
*63 a_reg[1]
*64 a_reg[2]
*65 a_reg[3]
*66 a_reg[4]
*67 a_reg[5]
*68 a_reg[6]
*69 a_reg[7]
*70 a_reg[8]
*71 a_reg[9]
*72 a_reg_d[0]
*73 a_reg_d[10]
*74 a_reg_d[11]
*75 a_reg_d[12]
*76 a_reg_d[13]
*77 a_reg_d[14]
*78 a_reg_d[15]
*79 a_reg_d[1]
*80 a_reg_d[2]
*81 a_reg_d[3]
*82 a_reg_d[4]
*83 a_reg_d[5]
*84 a_reg_d[6]
*85 a_reg_d[7]
*86 a_reg_d[8]
*87 a_reg_d[9]
*88 b_reg[0]
*89 b_reg[10]
*90 b_reg[11]
*91 b_reg[12]
*92 b_reg[13]
*93 b_reg[14]
*94 b_reg[15]
*95 b_reg[1]
*96 b_reg[2]
*97 b_reg[3]
*98 b_reg[4]
*99 b_reg[5]
*100 b_reg[6]
*101 b_reg[7]
*102 b_reg[8]
*103 b_reg[9]
*104 b_reg_d2[0]
*105 b_reg_d2[10]
*106 b_reg_d2[11]
*107 b_reg_d2[12]
*108 b_reg_d2[13]
*109 b_reg_d2[14]
*110 b_reg_d2[15]
*111 b_reg_d2[1]
*112 b_reg_d2[2]
*113 b_reg_d2[3]
*114 b_reg_d2[4]
*115 b_reg_d2[5]
*116 b_reg_d2[6]
*117 b_reg_d2[7]
*118 b_reg_d2[8]
*119 b_reg_d2[9]
*120 b_reg_d[0]
*121 b_reg_d[10]
*122 b_reg_d[11]
*123 b_reg_d[12]
*124 b_reg_d[13]
*125 b_reg_d[14]
*126 b_reg_d[15]
*127 b_reg_d[1]
*128 b_reg_d[2]
*129 b_reg_d[3]
*130 b_reg_d[4]
*131 b_reg_d[5]
*132 b_reg_d[6]
*133 b_reg_d[7]
*134 b_reg_d[8]
*135 b_reg_d[9]
*136 c_in_reg
*137 cla_carry_out
*138 cla_sum[0]
*139 cla_sum[10]
*140 cla_sum[11]
*141 cla_sum[12]
*142 cla_sum[13]
*143 cla_sum[14]
*144 cla_sum[15]
*145 cla_sum[1]
*146 cla_sum[2]
*147 cla_sum[3]
*148 cla_sum[4]
*149 cla_sum[5]
*150 cla_sum[6]
*151 cla_sum[7]
*152 cla_sum[8]
*153 cla_sum[9]
*154 clk_G1B1I1
*155 clk_G1B2I1
*156 clk_G1B2I2
*157 clk_G1B2I3
*158 clk_G1B2I4
*159 clk_G1B2I5
*160 n1
*161 n18
*162 n19
*163 n2
*164 n20
*165 n21
*166 n22
*167 n23
*168 n24
*169 n25
*170 n26
*171 n27
*172 n28
*173 n29
*174 n30
*175 n31
*176 n32
*177 n33
*178 n34
*179 rca_carry_w
*180 rca_sum_w[0]
*181 rca_sum_w[10]
*182 rca_sum_w[11]
*183 rca_sum_w[12]
*184 rca_sum_w[13]
*185 rca_sum_w[14]
*186 rca_sum_w[15]
*187 rca_sum_w[1]
*188 rca_sum_w[2]
*189 rca_sum_w[3]
*190 rca_sum_w[4]
*191 rca_sum_w[5]
*192 rca_sum_w[6]
*193 rca_sum_w[7]
*194 rca_sum_w[8]
*195 rca_sum_w[9]
*196 u1_cla16/carry_gen[0]
*197 u1_cla16/carry_gen[1]
*198 u1_cla16/carry_gen[2]
*199 u1_cla16/carry_gen[3]
*200 u1_cla16/gg[0]
*201 u1_cla16/gg[1]
*202 u1_cla16/gg[2]
*203 u1_cla16/gg[3]
*204 u1_cla16/pg[0]
*205 u1_cla16/pg[1]
*206 u1_cla16/pg[2]
*207 u1_cla16/pg[3]
*208 u1_cla16/sum[0]
*209 u1_cla16/sum[10]
*210 u1_cla16/sum[11]
*211 u1_cla16/sum[12]
*212 u1_cla16/sum[13]
*213 u1_cla16/sum[14]
*214 u1_cla16/sum[15]
*215 u1_cla16/sum[1]
*216 u1_cla16/sum[2]
*217 u1_cla16/sum[3]
*218 u1_cla16/sum[4]
*219 u1_cla16/sum[5]
*220 u1_cla16/sum[6]
*221 u1_cla16/sum[7]
*222 u1_cla16/sum[8]
*223 u1_cla16/sum[9]
*224 u1_cla16/u0_cla_4bit/carry_gen[0]
*225 u1_cla16/u0_cla_4bit/carry_gen[1]
*226 u1_cla16/u0_cla_4bit/carry_gen[2]
*227 u1_cla16/u0_cla_4bit/g[0]
*228 u1_cla16/u0_cla_4bit/g[1]
*229 u1_cla16/u0_cla_4bit/g[2]
*230 u1_cla16/u0_cla_4bit/g[3]
*231 u1_cla16/u0_cla_4bit/n1
*232 u1_cla16/u0_cla_4bit/n2
*233 u1_cla16/u0_cla_4bit/n3
*234 u1_cla16/u0_cla_4bit/n4
*235 u1_cla16/u0_cla_4bit/u4_cla_logic_bit/n1
*236 u1_cla16/u0_cla_4bit/u4_cla_logic_bit/n2
*237 u1_cla16/u0_cla_4bit/u4_cla_logic_bit/n3
*238 u1_cla16/u0_cla_4bit/u4_cla_logic_bit/n4
*239 u1_cla16/u0_cla_4bit/u4_cla_logic_bit/n5
*240 u1_cla16/u0_cla_4bit/u4_cla_logic_bit/n6
*241 u1_cla16/u1_cla_4bit/carry_gen[0]
*242 u1_cla16/u1_cla_4bit/carry_gen[1]
*243 u1_cla16/u1_cla_4bit/carry_gen[2]
*244 u1_cla16/u1_cla_4bit/g[0]
*245 u1_cla16/u1_cla_4bit/g[1]
*246 u1_cla16/u1_cla_4bit/g[2]
*247 u1_cla16/u1_cla_4bit/g[3]
*248 u1_cla16/u1_cla_4bit/n5
*249 u1_cla16/u1_cla_4bit/n6
*250 u1_cla16/u1_cla_4bit/n7
*251 u1_cla16/u1_cla_4bit/n8
*252 u1_cla16/u1_cla_4bit/u4_cla_logic_bit/n1
*253 u1_cla16/u1_cla_4bit/u4_cla_logic_bit/n2
*254 u1_cla16/u1_cla_4bit/u4_cla_logic_bit/n3
*255 u1_cla16/u1_cla_4bit/u4_cla_logic_bit/n4
*256 u1_cla16/u1_cla_4bit/u4_cla_logic_bit/n5
*257 u1_cla16/u1_cla_4bit/u4_cla_logic_bit/n6
*258 u1_cla16/u2_cla_4bit/carry_gen[0]
*259 u1_cla16/u2_cla_4bit/carry_gen[1]
*260 u1_cla16/u2_cla_4bit/carry_gen[2]
*261 u1_cla16/u2_cla_4bit/g[0]
*262 u1_cla16/u2_cla_4bit/g[1]
*263 u1_cla16/u2_cla_4bit/g[2]
*264 u1_cla16/u2_cla_4bit/g[3]
*265 u1_cla16/u2_cla_4bit/n5
*266 u1_cla16/u2_cla_4bit/n6
*267 u1_cla16/u2_cla_4bit/n7
*268 u1_cla16/u2_cla_4bit/n8
*269 u1_cla16/u2_cla_4bit/u4_cla_logic_bit/n1
*270 u1_cla16/u2_cla_4bit/u4_cla_logic_bit/n2
*271 u1_cla16/u2_cla_4bit/u4_cla_logic_bit/n3
*272 u1_cla16/u2_cla_4bit/u4_cla_logic_bit/n4
*273 u1_cla16/u2_cla_4bit/u4_cla_logic_bit/n5
*274 u1_cla16/u2_cla_4bit/u4_cla_logic_bit/n6
*275 u1_cla16/u3_cla_4bit/carry_gen[0]
*276 u1_cla16/u3_cla_4bit/carry_gen[1]
*277 u1_cla16/u3_cla_4bit/carry_gen[2]
*278 u1_cla16/u3_cla_4bit/g[0]
*279 u1_cla16/u3_cla_4bit/g[1]
*280 u1_cla16/u3_cla_4bit/g[2]
*281 u1_cla16/u3_cla_4bit/g[3]
*282 u1_cla16/u3_cla_4bit/n5
*283 u1_cla16/u3_cla_4bit/n6
*284 u1_cla16/u3_cla_4bit/n7
*285 u1_cla16/u3_cla_4bit/n8
*286 u1_cla16/u3_cla_4bit/u4_cla_logic_bit/n1
*287 u1_cla16/u3_cla_4bit/u4_cla_logic_bit/n2
*288 u1_cla16/u3_cla_4bit/u4_cla_logic_bit/n3
*289 u1_cla16/u3_cla_4bit/u4_cla_logic_bit/n4
*290 u1_cla16/u3_cla_4bit/u4_cla_logic_bit/n5
*291 u1_cla16/u3_cla_4bit/u4_cla_logic_bit/n6
*292 u1_cla16/u4_cla_logic/n1
*293 u1_cla16/u4_cla_logic/n2
*294 u1_cla16/u4_cla_logic/n3
*295 u1_cla16/u4_cla_logic/n4
*296 u2_cla16/carry_gen[0]
*297 u2_cla16/carry_gen[1]
*298 u2_cla16/carry_gen[2]
*299 u2_cla16/carry_gen[3]
*300 u2_cla16/gg[0]
*301 u2_cla16/gg[1]
*302 u2_cla16/gg[2]
*303 u2_cla16/gg[3]
*304 u2_cla16/pg[0]
*305 u2_cla16/pg[1]
*306 u2_cla16/pg[2]
*307 u2_cla16/pg[3]
*308 u2_cla16/sum[0]
*309 u2_cla16/sum[10]
*310 u2_cla16/sum[11]
*311 u2_cla16/sum[12]
*312 u2_cla16/sum[13]
*313 u2_cla16/sum[14]
*314 u2_cla16/sum[15]
*315 u2_cla16/sum[1]
*316 u2_cla16/sum[2]
*317 u2_cla16/sum[3]
*318 u2_cla16/sum[4]
*319 u2_cla16/sum[5]
*320 u2_cla16/sum[6]
*321 u2_cla16/sum[7]
*322 u2_cla16/sum[8]
*323 u2_cla16/sum[9]
*324 u2_cla16/u0_cla_4bit/carry_gen[0]
*325 u2_cla16/u0_cla_4bit/carry_gen[1]
*326 u2_cla16/u0_cla_4bit/carry_gen[2]
*327 u2_cla16/u0_cla_4bit/g[0]
*328 u2_cla16/u0_cla_4bit/g[1]
*329 u2_cla16/u0_cla_4bit/g[2]
*330 u2_cla16/u0_cla_4bit/g[3]
*331 u2_cla16/u0_cla_4bit/n5
*332 u2_cla16/u0_cla_4bit/n6
*333 u2_cla16/u0_cla_4bit/n7
*334 u2_cla16/u0_cla_4bit/n8
*335 u2_cla16/u0_cla_4bit/u4_cla_logic_bit/n1
*336 u2_cla16/u0_cla_4bit/u4_cla_logic_bit/n2
*337 u2_cla16/u0_cla_4bit/u4_cla_logic_bit/n3
*338 u2_cla16/u0_cla_4bit/u4_cla_logic_bit/n4
*339 u2_cla16/u0_cla_4bit/u4_cla_logic_bit/n5
*340 u2_cla16/u0_cla_4bit/u4_cla_logic_bit/n6
*341 u2_cla16/u1_cla_4bit/carry_gen[0]
*342 u2_cla16/u1_cla_4bit/carry_gen[1]
*343 u2_cla16/u1_cla_4bit/carry_gen[2]
*344 u2_cla16/u1_cla_4bit/g[0]
*345 u2_cla16/u1_cla_4bit/g[1]
*346 u2_cla16/u1_cla_4bit/g[2]
*347 u2_cla16/u1_cla_4bit/g[3]
*348 u2_cla16/u1_cla_4bit/n5
*349 u2_cla16/u1_cla_4bit/n6
*350 u2_cla16/u1_cla_4bit/n7
*351 u2_cla16/u1_cla_4bit/n8
*352 u2_cla16/u1_cla_4bit/u4_cla_logic_bit/n1
*353 u2_cla16/u1_cla_4bit/u4_cla_logic_bit/n2
*354 u2_cla16/u1_cla_4bit/u4_cla_logic_bit/n3
*355 u2_cla16/u1_cla_4bit/u4_cla_logic_bit/n4
*356 u2_cla16/u1_cla_4bit/u4_cla_logic_bit/n5
*357 u2_cla16/u1_cla_4bit/u4_cla_logic_bit/n6
*358 u2_cla16/u2_cla_4bit/carry_gen[0]
*359 u2_cla16/u2_cla_4bit/carry_gen[1]
*360 u2_cla16/u2_cla_4bit/carry_gen[2]
*361 u2_cla16/u2_cla_4bit/g[0]
*362 u2_cla16/u2_cla_4bit/g[1]
*363 u2_cla16/u2_cla_4bit/g[2]
*364 u2_cla16/u2_cla_4bit/g[3]
*365 u2_cla16/u2_cla_4bit/n5
*366 u2_cla16/u2_cla_4bit/n6
*367 u2_cla16/u2_cla_4bit/n7
*368 u2_cla16/u2_cla_4bit/n8
*369 u2_cla16/u2_cla_4bit/u4_cla_logic_bit/n1
*370 u2_cla16/u2_cla_4bit/u4_cla_logic_bit/n2
*371 u2_cla16/u2_cla_4bit/u4_cla_logic_bit/n3
*372 u2_cla16/u2_cla_4bit/u4_cla_logic_bit/n4
*373 u2_cla16/u2_cla_4bit/u4_cla_logic_bit/n5
*374 u2_cla16/u2_cla_4bit/u4_cla_logic_bit/n6
*375 u2_cla16/u3_cla_4bit/carry_gen[0]
*376 u2_cla16/u3_cla_4bit/carry_gen[1]
*377 u2_cla16/u3_cla_4bit/carry_gen[2]
*378 u2_cla16/u3_cla_4bit/g[0]
*379 u2_cla16/u3_cla_4bit/g[1]
*380 u2_cla16/u3_cla_4bit/g[2]
*381 u2_cla16/u3_cla_4bit/g[3]
*382 u2_cla16/u3_cla_4bit/n5
*383 u2_cla16/u3_cla_4bit/n6
*384 u2_cla16/u3_cla_4bit/n7
*385 u2_cla16/u3_cla_4bit/n8
*386 u2_cla16/u3_cla_4bit/u4_cla_logic_bit/n1
*387 u2_cla16/u3_cla_4bit/u4_cla_logic_bit/n2
*388 u2_cla16/u3_cla_4bit/u4_cla_logic_bit/n3
*389 u2_cla16/u3_cla_4bit/u4_cla_logic_bit/n4
*390 u2_cla16/u3_cla_4bit/u4_cla_logic_bit/n5
*391 u2_cla16/u3_cla_4bit/u4_cla_logic_bit/n6
*392 u2_cla16/u4_cla_logic/n1
*393 u2_cla16/u4_cla_logic/n2
*394 u2_cla16/u4_cla_logic/n3
*395 u2_cla16/u4_cla_logic/n4
*396 u_rca16/carry[0]
*397 u_rca16/carry[10]
*398 u_rca16/carry[11]
*399 u_rca16/carry[12]
*400 u_rca16/carry[13]
*401 u_rca16/carry[14]
*402 u_rca16/carry[15]
*403 u_rca16/carry[1]
*404 u_rca16/carry[2]
*405 u_rca16/carry[3]
*406 u_rca16/carry[4]
*407 u_rca16/carry[5]
*408 u_rca16/carry[6]
*409 u_rca16/carry[7]
*410 u_rca16/carry[8]
*411 u_rca16/carry[9]
*412 u_rca16/sum[0]
*413 u_rca16/sum[10]
*414 u_rca16/sum[11]
*415 u_rca16/sum[12]
*416 u_rca16/sum[13]
*417 u_rca16/sum[14]
*418 u_rca16/sum[15]
*419 u_rca16/sum[1]
*420 u_rca16/sum[2]
*421 u_rca16/sum[3]
*422 u_rca16/sum[4]
*423 u_rca16/sum[5]
*424 u_rca16/sum[6]
*425 u_rca16/sum[7]
*426 u_rca16/sum[8]
*427 u_rca16/sum[9]
*428 u_rca16/u0/n1
*429 u_rca16/u0/n2
*430 u_rca16/u1/n1
*431 u_rca16/u1/n2
*432 u_rca16/u10/n1
*433 u_rca16/u10/n2
*434 u_rca16/u11/n1
*435 u_rca16/u11/n2
*436 u_rca16/u12/n1
*437 u_rca16/u12/n2
*438 u_rca16/u13/n1
*439 u_rca16/u13/n2
*440 u_rca16/u14/n1
*441 u_rca16/u14/n2
*442 u_rca16/u15/n1
*443 u_rca16/u15/n2
*444 u_rca16/u2/n1
*445 u_rca16/u2/n2
*446 u_rca16/u3/n1
*447 u_rca16/u3/n2
*448 u_rca16/u4/n1
*449 u_rca16/u4/n2
*450 u_rca16/u5/n1
*451 u_rca16/u5/n2
*452 u_rca16/u6/n1
*453 u_rca16/u6/n2
*454 u_rca16/u7/n1
*455 u_rca16/u7/n2
*456 u_rca16/u8/n1
*457 u_rca16/u8/n2
*458 u_rca16/u9/n1
*459 u_rca16/u9/n2

*PORTS

*460 O
*461 I
*462 I
*463 I
*464 O
*465 O
*466 O
*467 O
*468 O
*469 O
*470 O
*471 O
*472 O
*473 O
*474 O
*475 O
*476 O
*477 O
*478 O
*479 O
*480 I
*481 I
*482 I
*483 I
*484 I
*485 I
*486 I
*487 I
*488 I
*489 I
*490 I
*491 I
*492 I
*493 I
*494 I
*495 I
*496 I
*497 I
*498 I
*499 I
*500 I
*501 I
*502 I
*503 I
*504 I
*505 I
*506 I
*507 I
*508 I
*509 I
*510 I
*511 I

// *LAYER_MAP

// *0 SUBSTRATE
// *1 poly    ITF=NPO_S
// *2 metal1    ITF=M1
// *3 metal2    ITF=M2
// *4 metal3    ITF=M3
// *5 metal4    ITF=M4
// *6 metal5    ITF=M5
// *7 via1    ITF=via1
// *8 via2    ITF=via2
// *9 via3    ITF=via3
// *10 via4    ITF=via4

*D_NET *1 16.6178

*CONN
*P *460 O *C 351.660 30.280
*I *530:Y O *C 248.170 107.560 *D CLKBUFX2
*N *1:2 *C 248.322 107.445
*N *1:3 *C 248.055 107.433
*N *1:4 *C 264.670 90.140
*N *1:5 *C 248.170 107.560
*N *1:6 *C 248.322 107.509
*N *1:7 *C 248.055 107.573

*CAP
1 *460 7.31336
2 *530:Y 0.999971
3 *1:4 8.30449
4 *1:7 0.0

*RES
1 *460 *1:4 66.0622
2 *530:Y *1:5 0.001
3 *530:Y *1:4 44.2375
4 *530:Y *1:3 0.001
5 *1:2 *1:6 0.001
6 *1:3 *1:6 0.001
7 *1:3 *1:7 0.001
*END

*D_NET *2 15.3522

*CONN
*P *461 I *C 0.070 199.960
*I *617:D I *C 102.970 182.040
*N *2:2 *C 103.630 182.040
*N *2:3 *C 102.970 182.040

*CAP
1 *461 7.11374
2 *2:2 8.23842
3 *2:3 0.0

*RES
1 *461 *2:2 65.758
2 *617:D *2:3 0.001
3 *617:D *2:2 10.5535
*END

*D_NET *3 82.2476

*CONN
*P *462 I *C 0.265 189.880
*I *518:A I *C 178.210 138.360
*I *529:A I *C 178.870 192.680
*I *541:RN I *C 187.450 163.560
*I *542:RN I *C 194.050 147.320
*I *573:RN I *C 223.750 133.320
*I *574:RN I *C 248.830 177.560
*I *575:RN I *C 221.110 143.400
*I *589:RN I *C 205.270 123.240
*I *590:RN I *C 234.970 147.320
*I *591:RN I *C 209.890 133.320
*I *607:RN I *C 200.180 106.990
*I *618:RN I *C 213.190 173.640
*I *621:RN I *C 187.450 127.160
*I *622:RN I *C 231.860 203.890
*I *623:RN I *C 217.810 193.800
*I *624:RN I *C 231.010 163.560
*I *625:RN I *C 233.650 157.400
*I *735:RN I *C 248.170 113.160
*I *736:RN I *C 245.720 106.990
*I *737:RN I *C 226.390 127.160
*I *738:RN I *C 229.030 113.160
*I *739:RN I *C 248.830 157.400
*I *740:RN I *C 248.830 187.640
*I *741:RN I *C 248.830 197.720
*I *743:RN I *C 230.350 103.080
*I *744:RN I *C 240.910 127.160
*I *745:RN I *C 234.970 137.240
*I *746:RN I *C 248.830 137.240
*I *747:RN I *C 234.120 123.250
*I *748:RN I *C 248.830 147.320
*I *749:RN I *C 248.170 167.480
*I *750:RN I *C 230.350 117.080
*I *751:RN I *C 215.830 103.080
*I *857:RN I *C 189.430 153.480
*I *858:RN I *C 206.590 137.240
*I *859:RN I *C 219.790 147.320
*N *3:37 *C 205.248 128.445
*N *3:38 *C 215.170 173.570
*N *3:39 *C 217.810 192.680
*N *3:40 *C 230.350 101.960
*N *3:41 *C 234.970 147.320
*N *3:42 *C 248.830 177.560
*N *3:43 *C 248.830 147.250
*N *3:44 *C 215.195 191.560
*N *3:45 *C 224.410 138.360
*N *3:46 *C 229.055 128.280
*N *3:47 *C 178.210 138.360
*N *3:48 *C 178.870 192.680
*N *3:49 *C 187.450 127.160
*N *3:50 *C 187.450 163.560
*N *3:51 *C 189.430 153.480
*N *3:52 *C 194.050 147.320
*N *3:53 *C 205.270 123.240
*N *3:54 *C 206.590 137.240
*N *3:55 *C 209.890 133.320
*N *3:56 *C 213.190 173.640
*N *3:57 *C 215.830 103.080
*N *3:58 *C 217.810 193.800
*N *3:59 *C 219.790 147.320
*N *3:60 *C 221.110 143.400
*N *3:61 *C 223.750 133.320
*N *3:62 *C 223.750 133.320
*N *3:63 *C 226.390 127.160
*N *3:64 *C 229.030 113.160
*N *3:65 *C 229.030 113.160
*N *3:66 *C 230.350 103.080
*N *3:67 *C 230.350 117.080
*N *3:68 *C 231.010 163.560
*N *3:69 *C 233.650 157.400
*N *3:70 *C 233.650 157.400
*N *3:71 *C 234.970 137.240
*N *3:72 *C 234.970 147.320
*N *3:73 *C 240.910 127.160
*N *3:74 *C 248.170 113.160
*N *3:75 *C 248.170 167.480
*N *3:76 *C 248.170 167.480
*N *3:77 *C 248.830 137.240
*N *3:78 *C 248.830 147.320
*N *3:79 *C 248.830 157.400
*N *3:80 *C 248.830 157.400
*N *3:81 *C 248.830 177.560
*N *3:82 *C 248.830 187.640
*N *3:83 *C 248.830 187.640
*N *3:84 *C 248.830 197.720
*N *3:85 *C 178.870 191.560
*N *3:86 *C 189.430 153.480
*N *3:87 *C 191.410 127.720
*N *3:88 *C 191.410 137.240
*N *3:89 *C 191.410 147.320
*N *3:90 *C 205.225 128.280
*N *3:91 *C 206.590 133.320
*N *3:92 *C 215.830 103.640
*N *3:93 *C 221.110 143.400
*N *3:94 *C 223.750 128.280
*N *3:95 *C 226.390 128.280
*N *3:96 *C 229.030 117.080
*N *3:97 *C 229.030 123.240
*N *3:98 *C 229.690 107.000
*N *3:99 *C 231.010 164.680
*N *3:100 *C 234.970 138.360
*N *3:101 *C 234.970 138.360
*N *3:102 *C 246.190 107.000
*N *3:103 *C 248.830 138.360
*N *3:104 *C 0.140 189.880

*CAP
1 *462 6.71068
2 *518:A 0.954725
3 *529:A 0.126645
4 *541:RN 0.61138
5 *542:RN 0.190592
6 *575:RN 0.0709938
7 *591:RN 0.0781134
8 *607:RN 1.18799
9 *618:RN 0.218216
10 *621:RN 0.0805144
11 *622:RN 1.07821
12 *624:RN 0.174207
13 *735:RN 0.541999
14 *736:RN 0.239755
15 *737:RN 0.137216
16 *744:RN 0.206712
17 *747:RN 0.310842
18 *750:RN 0.109207
19 *751:RN 0.102025
20 *857:RN 0.0603163
21 *858:RN 0.280924
22 *859:RN 0.53695
23 *3:37 1.26183
24 *3:38 4.2489
25 *3:39 3.17545
26 *3:40 2.47564
27 *3:41 2.44865
28 *3:42 2.56195
29 *3:43 1.16402
30 *3:44 3.75846
31 *3:45 1.90238
32 *3:46 1.87441
33 *3:62 0.905942
34 *3:65 1.70924
35 *3:70 1.14396
36 *3:76 0.303112
37 *3:80 2.25676
38 *3:83 1.18378
39 *3:85 14.1519
40 *3:86 1.21766
41 *3:87 1.25682
42 *3:88 2.74549
43 *3:89 0.986841
44 *3:90 3.44604
45 *3:91 0.849778
46 *3:92 3.24253
47 *3:93 1.77051
48 *3:94 0.181974
49 *3:95 0.130239
50 *3:96 0.098759
51 *3:97 0.283284
52 *3:98 0.758092
53 *3:99 1.60026
54 *3:101 1.61017
55 *3:102 1.4458
56 *3:104 0.0887266

*RES
1 *462 *3:85 101.184
2 *462 *3:104 0.001
3 *518:A *3:47 0.001
4 *518:A *3:88 38.0883
5 *529:A *3:48 0.001
6 *529:A *3:85 21.2523
7 *541:RN *3:50 0.001
8 *541:RN *3:86 26.6739
9 *542:RN *3:52 0.001
10 *542:RN *3:89 32.3229
11 *573:RN *3:62 10.3402
12 *573:RN *3:61 0.001
13 *574:RN *3:81 0.001
14 *574:RN *3:42 10.3402
15 *575:RN *3:60 0.001
16 *575:RN *3:93 20.6804
17 *589:RN *3:53 0.001
18 *589:RN *3:37 12.335
19 *590:RN *3:72 0.001
20 *590:RN *3:41 10.3402
21 *591:RN *3:55 0.001
22 *591:RN *3:91 22.1539