*SPEF "IEEE 1481-1999"
*DESIGN "pad_TOP"
*DATE "Thu Mar 17 16:10:40 2022"
*VENDOR "Synopsys Inc."
*PROGRAM "StarRC"
*VERSION "P-2019.03-SP2"
*DESIGN_FLOW "PIN_CAP NONE" "NAME_SCOPE LOCAL"
*DIVIDER /
*DELIMITER :
*BUS_DELIMITER []
*T_UNIT 1.0 NS
*C_UNIT 1.0 FF
*R_UNIT 1.0 OHM
*L_UNIT 1.0 HENRY

// COMMENTS

// OPERATING_TEMPERATURE 25
// GLOBAL_TEMPERATURE 25
// TCAD_GRD_FILE /home/shin/workspace/soc_design/test00/PDK/BE/StarRCXT/StarRCXT_HL18G_LPE_S3.7_a/StarRCXT_HL18G_STD_LPE_S3.7_a/StarRCXT_HL18G_M15_PnRDB_S3.7_a/HL18G_L28_STD_5LM_bestRC.nxtgrd
//   TCAD_TIME_STAMP Wed Feb 13 22:42:52 2013
//   TCADGRD_VERSION 43
// galaxy_comments_begin
//   local_nodeid
// galaxy_comments_end

*NAME_MAP
*510 carry_out
*511 sum_out[15]
*512 sum_out[14]
*513 sum_out[13]
*514 sum_out[12]
*515 sum_out[11]
*516 sum_out[10]
*517 sum_out[9]
*518 sum_out[8]
*519 sum_out[7]
*520 sum_out[6]
*521 sum_out[5]
*522 sum_out[4]
*523 sum_out[3]
*524 sum_out[2]
*525 sum_out[1]
*526 sum_out[0]
*527 carry_in
*528 b_in[15]
*529 b_in[14]
*530 b_in[13]
*531 b_in[12]
*532 b_in[11]
*533 b_in[10]
*534 b_in[9]
*535 b_in[8]
*536 b_in[7]
*537 b_in[6]
*538 b_in[5]
*539 b_in[4]
*540 b_in[3]
*541 b_in[2]
*542 b_in[1]
*543 b_in[0]
*544 a_in[15]
*545 a_in[14]
*546 a_in[13]
*547 a_in[12]
*548 a_in[11]
*549 a_in[10]
*550 a_in[9]
*551 a_in[8]
*552 a_in[7]
*553 a_in[6]
*554 a_in[5]
*555 a_in[4]
*556 a_in[3]
*557 a_in[2]
*558 a_in[1]
*559 a_in[0]
*560 rst_n
*561 clk
*562 pad1
*563 pad11
*564 pad12
*565 pad13
*566 pad14
*567 pad15
*568 pad16
*569 pad17
*570 pad18
*571 pad19
*572 pad2
*573 pad20
*574 pad21
*575 pad22
*576 pad23
*577 pad28
*578 pad29
*579 pad3
*580 pad30
*581 pad31
*582 pad32
*583 pad33
*584 pad34
*585 pad35
*586 pad36
*587 pad37
*588 pad38
*589 pad39
*590 pad4
*591 pad40
*592 pad45
*593 pad46
*594 pad47
*595 pad48
*596 pad49
*597 pad5
*598 pad50
*599 pad51
*600 pad52
*601 pad53
*602 pad54
*603 pad55
*604 pad56
*605 pad57
*606 pad6
*607 pad62
*608 pad63
*609 pad64
*610 pad65
*611 pad66
*612 pad67
*613 pad68
*614 u_adder_top/CLKINVX4_G2B2I1
*615 u_adder_top/CLKINVX4_G2B2I2
*616 u_adder_top/CLKINVX8_G2B1I1
*617 u_adder_top/CLKINVX8_G2B1I11
*618 u_adder_top/CLKINVX8_G2B1I2
*619 u_adder_top/CLKINVX8_G2B1I3
*620 u_adder_top/CLKINVX8_G2B1I4
*621 u_adder_top/CLKINVX8_G2B1I5
*622 u_adder_top/CLKINVX8_G2B1I6
*623 u_adder_top/CLKINVX8_G2B1I7
*624 u_adder_top/CLKINVX8_G2B1I8
*625 u_adder_top/CLKINVX8_G2B1I9
*626 u_adder_top/CLKINVX8_G2B2I3
*627 u_adder_top/CLKINVX8_G2B2I4
*628 u_adder_top/INVX8_G2B1I10
*629 u_adder_top/U1
*630 u_adder_top/U2
*631 u_adder_top/U21
*632 u_adder_top/U3
*633 u_adder_top/U4
*634 u_adder_top/U5
*635 u_adder_top/U6
*636 u_adder_top/U7
*637 u_adder_top/a_reg_d_reg_0_
*638 u_adder_top/a_reg_d_reg_10_
*639 u_adder_top/a_reg_d_reg_11_
*640 u_adder_top/a_reg_d_reg_12_
*641 u_adder_top/a_reg_d_reg_13_
*642 u_adder_top/a_reg_d_reg_14_
*643 u_adder_top/a_reg_d_reg_15_
*644 u_adder_top/a_reg_d_reg_1_
*645 u_adder_top/a_reg_d_reg_2_
*646 u_adder_top/a_reg_d_reg_3_
*647 u_adder_top/a_reg_d_reg_4_
*648 u_adder_top/a_reg_d_reg_5_
*649 u_adder_top/a_reg_d_reg_6_
*650 u_adder_top/a_reg_d_reg_7_
*651 u_adder_top/a_reg_d_reg_8_
*652 u_adder_top/a_reg_d_reg_9_
*653 u_adder_top/a_reg_reg_0_
*654 u_adder_top/a_reg_reg_10_
*655 u_adder_top/a_reg_reg_11_
*656 u_adder_top/a_reg_reg_12_
*657 u_adder_top/a_reg_reg_13_
*658 u_adder_top/a_reg_reg_14_
*659 u_adder_top/a_reg_reg_15_
*660 u_adder_top/a_reg_reg_1_
*661 u_adder_top/a_reg_reg_2_
*662 u_adder_top/a_reg_reg_3_
*663 u_adder_top/a_reg_reg_4_
*664 u_adder_top/a_reg_reg_5_
*665 u_adder_top/a_reg_reg_6_
*666 u_adder_top/a_reg_reg_7_
*667 u_adder_top/a_reg_reg_8_
*668 u_adder_top/a_reg_reg_9_
*669 u_adder_top/b_reg_d2_reg_0_
*670 u_adder_top/b_reg_d2_reg_10_
*671 u_adder_top/b_reg_d2_reg_11_
*672 u_adder_top/b_reg_d2_reg_12_
*673 u_adder_top/b_reg_d2_reg_13_
*674 u_adder_top/b_reg_d2_reg_14_
*675 u_adder_top/b_reg_d2_reg_15_
*676 u_adder_top/b_reg_d2_reg_1_
*677 u_adder_top/b_reg_d2_reg_2_
*678 u_adder_top/b_reg_d2_reg_3_
*679 u_adder_top/b_reg_d2_reg_4_
*680 u_adder_top/b_reg_d2_reg_5_
*681 u_adder_top/b_reg_d2_reg_6_
*682 u_adder_top/b_reg_d2_reg_7_
*683 u_adder_top/b_reg_d2_reg_8_
*684 u_adder_top/b_reg_d2_reg_9_
*685 u_adder_top/b_reg_d_reg_0_
*686 u_adder_top/b_reg_d_reg_10_
*687 u_adder_top/b_reg_d_reg_11_
*688 u_adder_top/b_reg_d_reg_12_
*689 u_adder_top/b_reg_d_reg_13_
*690 u_adder_top/b_reg_d_reg_14_
*691 u_adder_top/b_reg_d_reg_15_
*692 u_adder_top/b_reg_d_reg_1_
*693 u_adder_top/b_reg_d_reg_2_
*694 u_adder_top/b_reg_d_reg_3_
*695 u_adder_top/b_reg_d_reg_4_
*696 u_adder_top/b_reg_d_reg_5_
*697 u_adder_top/b_reg_d_reg_6_
*698 u_adder_top/b_reg_d_reg_7_
*699 u_adder_top/b_reg_d_reg_8_
*700 u_adder_top/b_reg_d_reg_9_
*701 u_adder_top/b_reg_reg_0_
*702 u_adder_top/b_reg_reg_10_
*703 u_adder_top/b_reg_reg_11_
*704 u_adder_top/b_reg_reg_12_
*705 u_adder_top/b_reg_reg_13_
*706 u_adder_top/b_reg_reg_14_
*707 u_adder_top/b_reg_reg_15_
*708 u_adder_top/b_reg_reg_1_
*709 u_adder_top/b_reg_reg_2_
*710 u_adder_top/b_reg_reg_3_
*711 u_adder_top/b_reg_reg_4_
*712 u_adder_top/b_reg_reg_5_
*713 u_adder_top/b_reg_reg_6_
*714 u_adder_top/b_reg_reg_7_
*715 u_adder_top/b_reg_reg_8_
*716 u_adder_top/b_reg_reg_9_
*717 u_adder_top/c_in_reg_reg
*718 u_adder_top/u1_cla16/carry_out_reg
*719 u_adder_top/u1_cla16/sum_out_reg_0_
*720 u_adder_top/u1_cla16/sum_out_reg_10_
*721 u_adder_top/u1_cla16/sum_out_reg_11_
*722 u_adder_top/u1_cla16/sum_out_reg_12_
*723 u_adder_top/u1_cla16/sum_out_reg_13_
*724 u_adder_top/u1_cla16/sum_out_reg_14_
*725 u_adder_top/u1_cla16/sum_out_reg_15_
*726 u_adder_top/u1_cla16/sum_out_reg_1_
*727 u_adder_top/u1_cla16/sum_out_reg_2_
*728 u_adder_top/u1_cla16/sum_out_reg_3_
*729 u_adder_top/u1_cla16/sum_out_reg_4_
*730 u_adder_top/u1_cla16/sum_out_reg_5_
*731 u_adder_top/u1_cla16/sum_out_reg_6_
*732 u_adder_top/u1_cla16/sum_out_reg_7_
*733 u_adder_top/u1_cla16/sum_out_reg_8_
*734 u_adder_top/u1_cla16/sum_out_reg_9_
*735 u_adder_top/u1_cla16/u0_cla_4bit/U1
*736 u_adder_top/u1_cla16/u0_cla_4bit/U10
*737 u_adder_top/u1_cla16/u0_cla_4bit/U11
*738 u_adder_top/u1_cla16/u0_cla_4bit/U12
*739 u_adder_top/u1_cla16/u0_cla_4bit/U2
*740 u_adder_top/u1_cla16/u0_cla_4bit/U3
*741 u_adder_top/u1_cla16/u0_cla_4bit/U4
*742 u_adder_top/u1_cla16/u0_cla_4bit/U5
*743 u_adder_top/u1_cla16/u0_cla_4bit/U6
*744 u_adder_top/u1_cla16/u0_cla_4bit/U7
*745 u_adder_top/u1_cla16/u0_cla_4bit/U8
*746 u_adder_top/u1_cla16/u0_cla_4bit/U9
*747 u_adder_top/u1_cla16/u0_cla_4bit/u4_cla_logic_bit/U1
*748 u_adder_top/u1_cla16/u0_cla_4bit/u4_cla_logic_bit/U10
*749 u_adder_top/u1_cla16/u0_cla_4bit/u4_cla_logic_bit/U11
*750 u_adder_top/u1_cla16/u0_cla_4bit/u4_cla_logic_bit/U2
*751 u_adder_top/u1_cla16/u0_cla_4bit/u4_cla_logic_bit/U3
*752 u_adder_top/u1_cla16/u0_cla_4bit/u4_cla_logic_bit/U4
*753 u_adder_top/u1_cla16/u0_cla_4bit/u4_cla_logic_bit/U5
*754 u_adder_top/u1_cla16/u0_cla_4bit/u4_cla_logic_bit/U6
*755 u_adder_top/u1_cla16/u0_cla_4bit/u4_cla_logic_bit/U7
*756 u_adder_top/u1_cla16/u0_cla_4bit/u4_cla_logic_bit/U8
*757 u_adder_top/u1_cla16/u0_cla_4bit/u4_cla_logic_bit/U9
*758 u_adder_top/u1_cla16/u1_cla_4bit/U1
*759 u_adder_top/u1_cla16/u1_cla_4bit/U10
*760 u_adder_top/u1_cla16/u1_cla_4bit/U11
*761 u_adder_top/u1_cla16/u1_cla_4bit/U12
*762 u_adder_top/u1_cla16/u1_cla_4bit/U2
*763 u_adder_top/u1_cla16/u1_cla_4bit/U3
*764 u_adder_top/u1_cla16/u1_cla_4bit/U4
*765 u_adder_top/u1_cla16/u1_cla_4bit/U5
*766 u_adder_top/u1_cla16/u1_cla_4bit/U6
*767 u_adder_top/u1_cla16/u1_cla_4bit/U7
*768 u_adder_top/u1_cla16/u1_cla_4bit/U8
*769 u_adder_top/u1_cla16/u1_cla_4bit/U9
*770 u_adder_top/u1_cla16/u1_cla_4bit/u4_cla_logic_bit/U1
*771 u_adder_top/u1_cla16/u1_cla_4bit/u4_cla_logic_bit/U10
*772 u_adder_top/u1_cla16/u1_cla_4bit/u4_cla_logic_bit/U11
*773 u_adder_top/u1_cla16/u1_cla_4bit/u4_cla_logic_bit/U2
*774 u_adder_top/u1_cla16/u1_cla_4bit/u4_cla_logic_bit/U3
*775 u_adder_top/u1_cla16/u1_cla_4bit/u4_cla_logic_bit/U4
*776 u_adder_top/u1_cla16/u1_cla_4bit/u4_cla_logic_bit/U5
*777 u_adder_top/u1_cla16/u1_cla_4bit/u4_cla_logic_bit/U6
*778 u_adder_top/u1_cla16/u1_cla_4bit/u4_cla_logic_bit/U7
*779 u_adder_top/u1_cla16/u1_cla_4bit/u4_cla_logic_bit/U8
*780 u_adder_top/u1_cla16/u1_cla_4bit/u4_cla_logic_bit/U9
*781 u_adder_top/u1_cla16/u2_cla_4bit/U1
*782 u_adder_top/u1_cla16/u2_cla_4bit/U10
*783 u_adder_top/u1_cla16/u2_cla_4bit/U11
*784 u_adder_top/u1_cla16/u2_cla_4bit/U12
*785 u_adder_top/u1_cla16/u2_cla_4bit/U2
*786 u_adder_top/u1_cla16/u2_cla_4bit/U3
*787 u_adder_top/u1_cla16/u2_cla_4bit/U4
*788 u_adder_top/u1_cla16/u2_cla_4bit/U5
*789 u_adder_top/u1_cla16/u2_cla_4bit/U6
*790 u_adder_top/u1_cla16/u2_cla_4bit/U7
*791 u_adder_top/u1_cla16/u2_cla_4bit/U8
*792 u_adder_top/u1_cla16/u2_cla_4bit/U9
*793 u_adder_top/u1_cla16/u2_cla_4bit/u4_cla_logic_bit/U1
*794 u_adder_top/u1_cla16/u2_cla_4bit/u4_cla_logic_bit/U10
*795 u_adder_top/u1_cla16/u2_cla_4bit/u4_cla_logic_bit/U11
*796 u_adder_top/u1_cla16/u2_cla_4bit/u4_cla_logic_bit/U2
*797 u_adder_top/u1_cla16/u2_cla_4bit/u4_cla_logic_bit/U3
*798 u_adder_top/u1_cla16/u2_cla_4bit/u4_cla_logic_bit/U4
*799 u_adder_top/u1_cla16/u2_cla_4bit/u4_cla_logic_bit/U5
*800 u_adder_top/u1_cla16/u2_cla_4bit/u4_cla_logic_bit/U6
*801 u_adder_top/u1_cla16/u2_cla_4bit/u4_cla_logic_bit/U7
*802 u_adder_top/u1_cla16/u2_cla_4bit/u4_cla_logic_bit/U8
*803 u_adder_top/u1_cla16/u2_cla_4bit/u4_cla_logic_bit/U9
*804 u_adder_top/u1_cla16/u3_cla_4bit/U1
*805 u_adder_top/u1_cla16/u3_cla_4bit/U10
*806 u_adder_top/u1_cla16/u3_cla_4bit/U11
*807 u_adder_top/u1_cla16/u3_cla_4bit/U12
*808 u_adder_top/u1_cla16/u3_cla_4bit/U2
*809 u_adder_top/u1_cla16/u3_cla_4bit/U3
*810 u_adder_top/u1_cla16/u3_cla_4bit/U4
*811 u_adder_top/u1_cla16/u3_cla_4bit/U5
*812 u_adder_top/u1_cla16/u3_cla_4bit/U6
*813 u_adder_top/u1_cla16/u3_cla_4bit/U7
*814 u_adder_top/u1_cla16/u3_cla_4bit/U8
*815 u_adder_top/u1_cla16/u3_cla_4bit/U9
*816 u_adder_top/u1_cla16/u3_cla_4bit/u4_cla_logic_bit/U1
*817 u_adder_top/u1_cla16/u3_cla_4bit/u4_cla_logic_bit/U10
*818 u_adder_top/u1_cla16/u3_cla_4bit/u4_cla_logic_bit/U11
*819 u_adder_top/u1_cla16/u3_cla_4bit/u4_cla_logic_bit/U2
*820 u_adder_top/u1_cla16/u3_cla_4bit/u4_cla_logic_bit/U3
*821 u_adder_top/u1_cla16/u3_cla_4bit/u4_cla_logic_bit/U4
*822 u_adder_top/u1_cla16/u3_cla_4bit/u4_cla_logic_bit/U5
*823 u_adder_top/u1_cla16/u3_cla_4bit/u4_cla_logic_bit/U6
*824 u_adder_top/u1_cla16/u3_cla_4bit/u4_cla_logic_bit/U7
*825 u_adder_top/u1_cla16/u3_cla_4bit/u4_cla_logic_bit/U8
*826 u_adder_top/u1_cla16/u3_cla_4bit/u4_cla_logic_bit/U9
*827 u_adder_top/u1_cla16/u4_cla_logic/U1
*828 u_adder_top/u1_cla16/u4_cla_logic/U2
*829 u_adder_top/u1_cla16/u4_cla_logic/U3
*830 u_adder_top/u1_cla16/u4_cla_logic/U4
*831 u_adder_top/u1_cla16/u4_cla_logic/U5
*832 u_adder_top/u1_cla16/u4_cla_logic/U6
*833 u_adder_top/u1_cla16/u4_cla_logic/U7
*834 u_adder_top/u1_cla16/u4_cla_logic/U8
*835 u_adder_top/u2_cla16/carry_out_reg
*836 u_adder_top/u2_cla16/sum_out_reg_0_
*837 u_adder_top/u2_cla16/sum_out_reg_10_
*838 u_adder_top/u2_cla16/sum_out_reg_11_
*839 u_adder_top/u2_cla16/sum_out_reg_12_
*840 u_adder_top/u2_cla16/sum_out_reg_13_
*841 u_adder_top/u2_cla16/sum_out_reg_14_
*842 u_adder_top/u2_cla16/sum_out_reg_15_
*843 u_adder_top/u2_cla16/sum_out_reg_1_
*844 u_adder_top/u2_cla16/sum_out_reg_2_
*845 u_adder_top/u2_cla16/sum_out_reg_3_
*846 u_adder_top/u2_cla16/sum_out_reg_4_
*847 u_adder_top/u2_cla16/sum_out_reg_5_
*848 u_adder_top/u2_cla16/sum_out_reg_6_
*849 u_adder_top/u2_cla16/sum_out_reg_7_
*850 u_adder_top/u2_cla16/sum_out_reg_8_
*851 u_adder_top/u2_cla16/sum_out_reg_9_
*852 u_adder_top/u2_cla16/u0_cla_4bit/U1
*853 u_adder_top/u2_cla16/u0_cla_4bit/U10
*854 u_adder_top/u2_cla16/u0_cla_4bit/U11
*855 u_adder_top/u2_cla16/u0_cla_4bit/U12
*856 u_adder_top/u2_cla16/u0_cla_4bit/U2
*857 u_adder_top/u2_cla16/u0_cla_4bit/U3
*858 u_adder_top/u2_cla16/u0_cla_4bit/U4
*859 u_adder_top/u2_cla16/u0_cla_4bit/U5
*860 u_adder_top/u2_cla16/u0_cla_4bit/U6
*861 u_adder_top/u2_cla16/u0_cla_4bit/U7
*862 u_adder_top/u2_cla16/u0_cla_4bit/U8
*863 u_adder_top/u2_cla16/u0_cla_4bit/U9
*864 u_adder_top/u2_cla16/u0_cla_4bit/u4_cla_logic_bit/U1
*865 u_adder_top/u2_cla16/u0_cla_4bit/u4_cla_logic_bit/U10
*866 u_adder_top/u2_cla16/u0_cla_4bit/u4_cla_logic_bit/U11
*867 u_adder_top/u2_cla16/u0_cla_4bit/u4_cla_logic_bit/U2
*868 u_adder_top/u2_cla16/u0_cla_4bit/u4_cla_logic_bit/U3
*869 u_adder_top/u2_cla16/u0_cla_4bit/u4_cla_logic_bit/U4
*870 u_adder_top/u2_cla16/u0_cla_4bit/u4_cla_logic_bit/U5
*871 u_adder_top/u2_cla16/u0_cla_4bit/u4_cla_logic_bit/U6
*872 u_adder_top/u2_cla16/u0_cla_4bit/u4_cla_logic_bit/U7
*873 u_adder_top/u2_cla16/u0_cla_4bit/u4_cla_logic_bit/U8
*874 u_adder_top/u2_cla16/u0_cla_4bit/u4_cla_logic_bit/U9
*875 u_adder_top/u2_cla16/u1_cla_4bit/U1
*876 u_adder_top/u2_cla16/u1_cla_4bit/U10
*877 u_adder_top/u2_cla16/u1_cla_4bit/U11
*878 u_adder_top/u2_cla16/u1_cla_4bit/U12
*879 u_adder_top/u2_cla16/u1_cla_4bit/U2
*880 u_adder_top/u2_cla16/u1_cla_4bit/U3
*881 u_adder_top/u2_cla16/u1_cla_4bit/U4
*882 u_adder_top/u2_cla16/u1_cla_4bit/U5
*883 u_adder_top/u2_cla16/u1_cla_4bit/U6
*884 u_adder_top/u2_cla16/u1_cla_4bit/U7
*885 u_adder_top/u2_cla16/u1_cla_4bit/U8
*886 u_adder_top/u2_cla16/u1_cla_4bit/U9
*887 u_adder_top/u2_cla16/u1_cla_4bit/u4_cla_logic_bit/U1
*888 u_adder_top/u2_cla16/u1_cla_4bit/u4_cla_logic_bit/U10
*889 u_adder_top/u2_cla16/u1_cla_4bit/u4_cla_logic_bit/U11
*890 u_adder_top/u2_cla16/u1_cla_4bit/u4_cla_logic_bit/U2
*891 u_adder_top/u2_cla16/u1_cla_4bit/u4_cla_logic_bit/U3
*892 u_adder_top/u2_cla16/u1_cla_4bit/u4_cla_logic_bit/U4
*893 u_adder_top/u2_cla16/u1_cla_4bit/u4_cla_logic_bit/U5
*894 u_adder_top/u2_cla16/u1_cla_4bit/u4_cla_logic_bit/U6
*895 u_adder_top/u2_cla16/u1_cla_4bit/u4_cla_logic_bit/U7
*896 u_adder_top/u2_cla16/u1_cla_4bit/u4_cla_logic_bit/U8
*897 u_adder_top/u2_cla16/u1_cla_4bit/u4_cla_logic_bit/U9
*898 u_adder_top/u2_cla16/u2_cla_4bit/U1
*899 u_adder_top/u2_cla16/u2_cla_4bit/U10
*900 u_adder_top/u2_cla16/u2_cla_4bit/U11
*901 u_adder_top/u2_cla16/u2_cla_4bit/U12
*902 u_adder_top/u2_cla16/u2_cla_4bit/U2
*903 u_adder_top/u2_cla16/u2_cla_4bit/U3
*904 u_adder_top/u2_cla16/u2_cla_4bit/U4
*905 u_adder_top/u2_cla16/u2_cla_4bit/U5
*906 u_adder_top/u2_cla16/u2_cla_4bit/U6
*907 u_adder_top/u2_cla16/u2_cla_4bit/U7
*908 u_adder_top/u2_cla16/u2_cla_4bit/U8
*909 u_adder_top/u2_cla16/u2_cla_4bit/U9
*910 u_adder_top/u2_cla16/u2_cla_4bit/u4_cla_logic_bit/U1
*911 u_adder_top/u2_cla16/u2_cla_4bit/u4_cla_logic_bit/U10
*912 u_adder_top/u2_cla16/u2_cla_4bit/u4_cla_logic_bit/U11
*913 u_adder_top/u2_cla16/u2_cla_4bit/u4_cla_logic_bit/U2
*914 u_adder_top/u2_cla16/u2_cla_4bit/u4_cla_logic_bit/U3
*915 u_adder_top/u2_cla16/u2_cla_4bit/u4_cla_logic_bit/U4
*916 u_adder_top/u2_cla16/u2_cla_4bit/u4_cla_logic_bit/U5
*917 u_adder_top/u2_cla16/u2_cla_4bit/u4_cla_logic_bit/U6
*918 u_adder_top/u2_cla16/u2_cla_4bit/u4_cla_logic_bit/U7
*919 u_adder_top/u2_cla16/u2_cla_4bit/u4_cla_logic_bit/U8
*920 u_adder_top/u2_cla16/u2_cla_4bit/u4_cla_logic_bit/U9
*921 u_adder_top/u2_cla16/u3_cla_4bit/U1
*922 u_adder_top/u2_cla16/u3_cla_4bit/U10
*923 u_adder_top/u2_cla16/u3_cla_4bit/U11
*924 u_adder_top/u2_cla16/u3_cla_4bit/U12
*925 u_adder_top/u2_cla16/u3_cla_4bit/U2
*926 u_adder_top/u2_cla16/u3_cla_4bit/U3
*927 u_adder_top/u2_cla16/u3_cla_4bit/U4
*928 u_adder_top/u2_cla16/u3_cla_4bit/U5
*929 u_adder_top/u2_cla16/u3_cla_4bit/U6
*930 u_adder_top/u2_cla16/u3_cla_4bit/U7
*931 u_adder_top/u2_cla16/u3_cla_4bit/U8
*932 u_adder_top/u2_cla16/u3_cla_4bit/U9
*933 u_adder_top/u2_cla16/u3_cla_4bit/u4_cla_logic_bit/U1
*934 u_adder_top/u2_cla16/u3_cla_4bit/u4_cla_logic_bit/U10
*935 u_adder_top/u2_cla16/u3_cla_4bit/u4_cla_logic_bit/U11
*936 u_adder_top/u2_cla16/u3_cla_4bit/u4_cla_logic_bit/U2
*937 u_adder_top/u2_cla16/u3_cla_4bit/u4_cla_logic_bit/U3
*938 u_adder_top/u2_cla16/u3_cla_4bit/u4_cla_logic_bit/U4
*939 u_adder_top/u2_cla16/u3_cla_4bit/u4_cla_logic_bit/U5
*940 u_adder_top/u2_cla16/u3_cla_4bit/u4_cla_logic_bit/U6
*941 u_adder_top/u2_cla16/u3_cla_4bit/u4_cla_logic_bit/U7
*942 u_adder_top/u2_cla16/u3_cla_4bit/u4_cla_logic_bit/U8
*943 u_adder_top/u2_cla16/u3_cla_4bit/u4_cla_logic_bit/U9
*944 u_adder_top/u2_cla16/u4_cla_logic/U1
*945 u_adder_top/u2_cla16/u4_cla_logic/U2
*946 u_adder_top/u2_cla16/u4_cla_logic/U3
*947 u_adder_top/u2_cla16/u4_cla_logic/U4
*948 u_adder_top/u2_cla16/u4_cla_logic/U5
*949 u_adder_top/u2_cla16/u4_cla_logic/U6
*950 u_adder_top/u2_cla16/u4_cla_logic/U7
*951 u_adder_top/u2_cla16/u4_cla_logic/U8
*952 u_adder_top/u_rca16/carry_out_reg
*953 u_adder_top/u_rca16/sum_out_reg_0_
*954 u_adder_top/u_rca16/sum_out_reg_10_
*955 u_adder_top/u_rca16/sum_out_reg_11_
*956 u_adder_top/u_rca16/sum_out_reg_12_
*957 u_adder_top/u_rca16/sum_out_reg_13_
*958 u_adder_top/u_rca16/sum_out_reg_14_
*959 u_adder_top/u_rca16/sum_out_reg_15_
*960 u_adder_top/u_rca16/sum_out_reg_1_
*961 u_adder_top/u_rca16/sum_out_reg_2_
*962 u_adder_top/u_rca16/sum_out_reg_3_
*963 u_adder_top/u_rca16/sum_out_reg_4_
*964 u_adder_top/u_rca16/sum_out_reg_5_
*965 u_adder_top/u_rca16/sum_out_reg_6_
*966 u_adder_top/u_rca16/sum_out_reg_7_
*967 u_adder_top/u_rca16/sum_out_reg_8_
*968 u_adder_top/u_rca16/sum_out_reg_9_
*969 u_adder_top/u_rca16/u0/U1
*970 u_adder_top/u_rca16/u0/U2
*971 u_adder_top/u_rca16/u0/U3
*972 u_adder_top/u_rca16/u0/U4
*973 u_adder_top/u_rca16/u1/U1
*974 u_adder_top/u_rca16/u1/U2
*975 u_adder_top/u_rca16/u1/U3
*976 u_adder_top/u_rca16/u1/U4
*977 u_adder_top/u_rca16/u10/U1
*978 u_adder_top/u_rca16/u10/U2
*979 u_adder_top/u_rca16/u10/U3
*980 u_adder_top/u_rca16/u10/U4
*981 u_adder_top/u_rca16/u11/U1
*982 u_adder_top/u_rca16/u11/U2
*983 u_adder_top/u_rca16/u11/U3
*984 u_adder_top/u_rca16/u11/U4
*985 u_adder_top/u_rca16/u12/U1
*986 u_adder_top/u_rca16/u12/U2
*987 u_adder_top/u_rca16/u12/U3
*988 u_adder_top/u_rca16/u12/U4
*989 u_adder_top/u_rca16/u13/U1
*990 u_adder_top/u_rca16/u13/U2
*991 u_adder_top/u_rca16/u13/U3
*992 u_adder_top/u_rca16/u13/U4
*993 u_adder_top/u_rca16/u14/U1
*994 u_adder_top/u_rca16/u14/U2
*995 u_adder_top/u_rca16/u14/U3
*996 u_adder_top/u_rca16/u14/U4
*997 u_adder_top/u_rca16/u15/U1
*998 u_adder_top/u_rca16/u15/U2
*999 u_adder_top/u_rca16/u15/U3
*1000 u_adder_top/u_rca16/u15/U4
*1001 u_adder_top/u_rca16/u2/U1
*1002 u_adder_top/u_rca16/u2/U2
*1003 u_adder_top/u_rca16/u2/U3
*1004 u_adder_top/u_rca16/u2/U4
*1005 u_adder_top/u_rca16/u3/U1
*1006 u_adder_top/u_rca16/u3/U2
*1007 u_adder_top/u_rca16/u3/U3
*1008 u_adder_top/u_rca16/u3/U4
*1009 u_adder_top/u_rca16/u4/U1
*1010 u_adder_top/u_rca16/u4/U2
*1011 u_adder_top/u_rca16/u4/U3
*1012 u_adder_top/u_rca16/u4/U4
*1013 u_adder_top/u_rca16/u5/U1
*1014 u_adder_top/u_rca16/u5/U2
*1015 u_adder_top/u_rca16/u5/U3
*1016 u_adder_top/u_rca16/u5/U4
*1017 u_adder_top/u_rca16/u6/U1
*1018 u_adder_top/u_rca16/u6/U2
*1019 u_adder_top/u_rca16/u6/U3
*1020 u_adder_top/u_rca16/u6/U4
*1021 u_adder_top/u_rca16/u7/U1
*1022 u_adder_top/u_rca16/u7/U2
*1023 u_adder_top/u_rca16/u7/U3
*1024 u_adder_top/u_rca16/u7/U4
*1025 u_adder_top/u_rca16/u8/U1
*1026 u_adder_top/u_rca16/u8/U2
*1027 u_adder_top/u_rca16/u8/U3
*1028 u_adder_top/u_rca16/u8/U4
*1029 u_adder_top/u_rca16/u9/U1
*1030 u_adder_top/u_rca16/u9/U2
*1031 u_adder_top/u_rca16/u9/U3
*1032 u_adder_top/u_rca16/u9/U4
*1 carry_out
*2 sum_out[15]
*3 sum_out[14]
*4 sum_out[13]
*5 sum_out[12]
*6 sum_out[11]
*7 sum_out[10]
*8 sum_out[9]
*9 sum_out[8]
*10 sum_out[7]
*11 sum_out[6]
*12 sum_out[5]
*13 sum_out[4]
*14 sum_out[3]
*15 sum_out[2]
*16 sum_out[1]
*17 sum_out[0]
*18 carry_in
*19 b_in[15]
*20 b_in[14]
*21 b_in[13]
*22 b_in[12]
*23 b_in[11]
*24 b_in[10]
*25 b_in[9]
*26 b_in[8]
*27 b_in[7]
*28 b_in[6]
*29 b_in[5]
*30 b_in[4]
*31 b_in[3]
*32 b_in[2]
*33 b_in[1]
*34 b_in[0]
*35 a_in[15]
*36 a_in[14]
*37 a_in[13]
*38 a_in[12]
*39 a_in[11]
*40 a_in[10]
*41 a_in[9]
*42 a_in[8]
*43 a_in[7]
*44 a_in[6]
*45 a_in[5]
*46 a_in[4]
*47 a_in[3]
*48 a_in[2]
*49 a_in[1]
*50 a_in[0]
*51 rst_n
*52 clk
*56 in_p_A[0]
*57 in_p_A[10]
*58 in_p_A[11]
*59 in_p_A[12]
*60 in_p_A[13]
*61 in_p_A[14]
*62 in_p_A[15]
*63 in_p_A[1]
*64 in_p_A[2]
*65 in_p_A[3]
*66 in_p_A[4]
*67 in_p_A[5]
*68 in_p_A[6]
*69 in_p_A[7]
*70 in_p_A[8]
*71 in_p_A[9]
*72 in_p_B[0]
*73 in_p_B[10]
*74 in_p_B[11]
*75 in_p_B[12]
*76 in_p_B[13]
*77 in_p_B[14]
*78 in_p_B[15]
*79 in_p_B[1]
*80 in_p_B[2]
*81 in_p_B[3]
*82 in_p_B[4]
*83 in_p_B[5]
*84 in_p_B[6]
*85 in_p_B[7]
*86 in_p_B[8]
*87 in_p_B[9]
*88 in_p_C_in
*89 in_p_clk
*90 in_p_rst_n
*91 out_p_C_out
*92 out_p_SUM[0]
*93 out_p_SUM[10]
*94 out_p_SUM[11]
*95 out_p_SUM[12]
*96 out_p_SUM[13]
*97 out_p_SUM[14]
*98 out_p_SUM[15]
*99 out_p_SUM[1]
*100 out_p_SUM[2]
*101 out_p_SUM[3]
*102 out_p_SUM[4]
*103 out_p_SUM[5]
*104 out_p_SUM[6]
*105 out_p_SUM[7]
*106 out_p_SUM[8]
*107 out_p_SUM[9]
*108 u_adder_top/a_reg[0]
*109 u_adder_top/a_reg[10]
*110 u_adder_top/a_reg[11]
*111 u_adder_top/a_reg[12]
*112 u_adder_top/a_reg[13]
*113 u_adder_top/a_reg[14]
*114 u_adder_top/a_reg[15]
*115 u_adder_top/a_reg[1]
*116 u_adder_top/a_reg[2]
*117 u_adder_top/a_reg[3]
*118 u_adder_top/a_reg[4]
*119 u_adder_top/a_reg[5]
*120 u_adder_top/a_reg[6]
*121 u_adder_top/a_reg[7]
*122 u_adder_top/a_reg[8]
*123 u_adder_top/a_reg[9]
*124 u_adder_top/a_reg_d[0]
*125 u_adder_top/a_reg_d[10]
*126 u_adder_top/a_reg_d[11]
*127 u_adder_top/a_reg_d[12]
*128 u_adder_top/a_reg_d[13]
*129 u_adder_top/a_reg_d[14]
*130 u_adder_top/a_reg_d[15]
*131 u_adder_top/a_reg_d[1]
*132 u_adder_top/a_reg_d[2]
*133 u_adder_top/a_reg_d[3]
*134 u_adder_top/a_reg_d[4]
*135 u_adder_top/a_reg_d[5]
*136 u_adder_top/a_reg_d[6]
*137 u_adder_top/a_reg_d[7]
*138 u_adder_top/a_reg_d[8]
*139 u_adder_top/a_reg_d[9]
*140 u_adder_top/b_reg[0]
*141 u_adder_top/b_reg[10]
*142 u_adder_top/b_reg[11]
*143 u_adder_top/b_reg[12]
*144 u_adder_top/b_reg[13]
*145 u_adder_top/b_reg[14]
*146 u_adder_top/b_reg[15]
*147 u_adder_top/b_reg[1]
*148 u_adder_top/b_reg[2]
*149 u_adder_top/b_reg[3]
*150 u_adder_top/b_reg[4]
*151 u_adder_top/b_reg[5]
*152 u_adder_top/b_reg[6]
*153 u_adder_top/b_reg[7]
*154 u_adder_top/b_reg[8]
*155 u_adder_top/b_reg[9]
*156 u_adder_top/b_reg_d2[0]
*157 u_adder_top/b_reg_d2[10]
*158 u_adder_top/b_reg_d2[11]
*159 u_adder_top/b_reg_d2[12]
*160 u_adder_top/b_reg_d2[13]
*161 u_adder_top/b_reg_d2[14]
*162 u_adder_top/b_reg_d2[15]
*163 u_adder_top/b_reg_d2[1]
*164 u_adder_top/b_reg_d2[2]
*165 u_adder_top/b_reg_d2[3]
*166 u_adder_top/b_reg_d2[4]
*167 u_adder_top/b_reg_d2[5]
*168 u_adder_top/b_reg_d2[6]
*169 u_adder_top/b_reg_d2[7]
*170 u_adder_top/b_reg_d2[8]
*171 u_adder_top/b_reg_d2[9]
*172 u_adder_top/b_reg_d[0]
*173 u_adder_top/b_reg_d[10]
*174 u_adder_top/b_reg_d[11]
*175 u_adder_top/b_reg_d[12]
*176 u_adder_top/b_reg_d[13]
*177 u_adder_top/b_reg_d[14]
*178 u_adder_top/b_reg_d[15]
*179 u_adder_top/b_reg_d[1]
*180 u_adder_top/b_reg_d[2]
*181 u_adder_top/b_reg_d[3]
*182 u_adder_top/b_reg_d[4]
*183 u_adder_top/b_reg_d[5]
*184 u_adder_top/b_reg_d[6]
*185 u_adder_top/b_reg_d[7]
*186 u_adder_top/b_reg_d[8]
*187 u_adder_top/b_reg_d[9]
*188 u_adder_top/c_in_reg
*189 u_adder_top/cla_carry_out
*190 u_adder_top/cla_sum[0]
*191 u_adder_top/cla_sum[10]
*192 u_adder_top/cla_sum[11]
*193 u_adder_top/cla_sum[12]
*194 u_adder_top/cla_sum[13]
*195 u_adder_top/cla_sum[14]
*196 u_adder_top/cla_sum[15]
*197 u_adder_top/cla_sum[1]
*198 u_adder_top/cla_sum[2]
*199 u_adder_top/cla_sum[3]
*200 u_adder_top/cla_sum[4]
*201 u_adder_top/cla_sum[5]
*202 u_adder_top/cla_sum[6]
*203 u_adder_top/cla_sum[7]
*204 u_adder_top/cla_sum[8]
*205 u_adder_top/cla_sum[9]
*206 u_adder_top/in_p_clk_G2B1I1
*207 u_adder_top/in_p_clk_G2B1I2
*208 u_adder_top/in_p_clk_G2B1I3
*209 u_adder_top/in_p_clk_G2B1I4
*210 u_adder_top/in_p_clk_G2B2I1
*211 u_adder_top/in_p_clk_G2B2I10
*212 u_adder_top/in_p_clk_G2B2I11
*213 u_adder_top/in_p_clk_G2B2I2
*214 u_adder_top/in_p_clk_G2B2I3
*215 u_adder_top/in_p_clk_G2B2I4
*216 u_adder_top/in_p_clk_G2B2I5
*217 u_adder_top/in_p_clk_G2B2I6
*218 u_adder_top/in_p_clk_G2B2I7
*219 u_adder_top/in_p_clk_G2B2I8
*220 u_adder_top/in_p_clk_G2B2I9
*221 u_adder_top/n1
*222 u_adder_top/n2
*223 u_adder_top/n37
*224 u_adder_top/n38
*225 u_adder_top/n39
*226 u_adder_top/n4
*227 u_adder_top/n40
*228 u_adder_top/n41
*229 u_adder_top/rca_carry_w
*230 u_adder_top/rca_sum_w[0]
*231 u_adder_top/rca_sum_w[10]
*232 u_adder_top/rca_sum_w[11]
*233 u_adder_top/rca_sum_w[12]
*234 u_adder_top/rca_sum_w[13]
*235 u_adder_top/rca_sum_w[14]
*236 u_adder_top/rca_sum_w[15]
*237 u_adder_top/rca_sum_w[1]
*238 u_adder_top/rca_sum_w[2]
*239 u_adder_top/rca_sum_w[3]
*240 u_adder_top/rca_sum_w[4]
*241 u_adder_top/rca_sum_w[5]
*242 u_adder_top/rca_sum_w[6]
*243 u_adder_top/rca_sum_w[7]
*244 u_adder_top/rca_sum_w[8]
*245 u_adder_top/rca_sum_w[9]
*246 u_adder_top/u1_cla16/carry_gen[0]
*247 u_adder_top/u1_cla16/carry_gen[1]
*248 u_adder_top/u1_cla16/carry_gen[2]
*249 u_adder_top/u1_cla16/carry_gen[3]
*250 u_adder_top/u1_cla16/gg[0]
*251 u_adder_top/u1_cla16/gg[1]
*252 u_adder_top/u1_cla16/gg[2]
*253 u_adder_top/u1_cla16/gg[3]
*254 u_adder_top/u1_cla16/pg[0]
*255 u_adder_top/u1_cla16/pg[1]
*256 u_adder_top/u1_cla16/pg[2]
*257 u_adder_top/u1_cla16/pg[3]
*258 u_adder_top/u1_cla16/sum[0]
*259 u_adder_top/u1_cla16/sum[10]
*260 u_adder_top/u1_cla16/sum[11]
*261 u_adder_top/u1_cla16/sum[12]
*262 u_adder_top/u1_cla16/sum[13]
*263 u_adder_top/u1_cla16/sum[14]
*264 u_adder_top/u1_cla16/sum[15]
*265 u_adder_top/u1_cla16/sum[1]
*266 u_adder_top/u1_cla16/sum[2]
*267 u_adder_top/u1_cla16/sum[3]
*268 u_adder_top/u1_cla16/sum[4]
*269 u_adder_top/u1_cla16/sum[5]
*270 u_adder_top/u1_cla16/sum[6]
*271 u_adder_top/u1_cla16/sum[7]
*272 u_adder_top/u1_cla16/sum[8]
*273 u_adder_top/u1_cla16/sum[9]
*274 u_adder_top/u1_cla16/u0_cla_4bit/carry_gen[0]
*275 u_adder_top/u1_cla16/u0_cla_4bit/carry_gen[1]
*276 u_adder_top/u1_cla16/u0_cla_4bit/carry_gen[2]
*277 u_adder_top/u1_cla16/u0_cla_4bit/g[0]
*278 u_adder_top/u1_cla16/u0_cla_4bit/g[1]
*279 u_adder_top/u1_cla16/u0_cla_4bit/g[2]
*280 u_adder_top/u1_cla16/u0_cla_4bit/g[3]
*281 u_adder_top/u1_cla16/u0_cla_4bit/n1
*282 u_adder_top/u1_cla16/u0_cla_4bit/n2
*283 u_adder_top/u1_cla16/u0_cla_4bit/n3
*284 u_adder_top/u1_cla16/u0_cla_4bit/n4
*285 u_adder_top/u1_cla16/u0_cla_4bit/u4_cla_logic_bit/n1
*286 u_adder_top/u1_cla16/u0_cla_4bit/u4_cla_logic_bit/n2
*287 u_adder_top/u1_cla16/u0_cla_4bit/u4_cla_logic_bit/n3
*288 u_adder_top/u1_cla16/u0_cla_4bit/u4_cla_logic_bit/n4
*289 u_adder_top/u1_cla16/u0_cla_4bit/u4_cla_logic_bit/n5
*290 u_adder_top/u1_cla16/u0_cla_4bit/u4_cla_logic_bit/n6
*291 u_adder_top/u1_cla16/u1_cla_4bit/carry_gen[0]
*292 u_adder_top/u1_cla16/u1_cla_4bit/carry_gen[1]
*293 u_adder_top/u1_cla16/u1_cla_4bit/carry_gen[2]
*294 u_adder_top/u1_cla16/u1_cla_4bit/g[0]
*295 u_adder_top/u1_cla16/u1_cla_4bit/g[1]
*296 u_adder_top/u1_cla16/u1_cla_4bit/g[2]
*297 u_adder_top/u1_cla16/u1_cla_4bit/g[3]
*298 u_adder_top/u1_cla16/u1_cla_4bit/n5
*299 u_adder_top/u1_cla16/u1_cla_4bit/n6
*300 u_adder_top/u1_cla16/u1_cla_4bit/n7
*301 u_adder_top/u1_cla16/u1_cla_4bit/n8
*302 u_adder_top/u1_cla16/u1_cla_4bit/u4_cla_logic_bit/n1
*303 u_adder_top/u1_cla16/u1_cla_4bit/u4_cla_logic_bit/n2
*304 u_adder_top/u1_cla16/u1_cla_4bit/u4_cla_logic_bit/n3
*305 u_adder_top/u1_cla16/u1_cla_4bit/u4_cla_logic_bit/n4
*306 u_adder_top/u1_cla16/u1_cla_4bit/u4_cla_logic_bit/n5
*307 u_adder_top/u1_cla16/u1_cla_4bit/u4_cla_logic_bit/n6
*308 u_adder_top/u1_cla16/u2_cla_4bit/carry_gen[0]
*309 u_adder_top/u1_cla16/u2_cla_4bit/carry_gen[1]
*310 u_adder_top/u1_cla16/u2_cla_4bit/carry_gen[2]
*311 u_adder_top/u1_cla16/u2_cla_4bit/g[0]
*312 u_adder_top/u1_cla16/u2_cla_4bit/g[1]
*313 u_adder_top/u1_cla16/u2_cla_4bit/g[2]
*314 u_adder_top/u1_cla16/u2_cla_4bit/g[3]
*315 u_adder_top/u1_cla16/u2_cla_4bit/n5
*316 u_adder_top/u1_cla16/u2_cla_4bit/n6
*317 u_adder_top/u1_cla16/u2_cla_4bit/n7
*318 u_adder_top/u1_cla16/u2_cla_4bit/n8
*319 u_adder_top/u1_cla16/u2_cla_4bit/u4_cla_logic_bit/n1
*320 u_adder_top/u1_cla16/u2_cla_4bit/u4_cla_logic_bit/n2
*321 u_adder_top/u1_cla16/u2_cla_4bit/u4_cla_logic_bit/n3
*322 u_adder_top/u1_cla16/u2_cla_4bit/u4_cla_logic_bit/n4
*323 u_adder_top/u1_cla16/u2_cla_4bit/u4_cla_logic_bit/n5
*324 u_adder_top/u1_cla16/u2_cla_4bit/u4_cla_logic_bit/n6
*325 u_adder_top/u1_cla16/u3_cla_4bit/carry_gen[0]
*326 u_adder_top/u1_cla16/u3_cla_4bit/carry_gen[1]
*327 u_adder_top/u1_cla16/u3_cla_4bit/carry_gen[2]
*328 u_adder_top/u1_cla16/u3_cla_4bit/g[0]
*329 u_adder_top/u1_cla16/u3_cla_4bit/g[1]
*330 u_adder_top/u1_cla16/u3_cla_4bit/g[2]
*331 u_adder_top/u1_cla16/u3_cla_4bit/g[3]
*332 u_adder_top/u1_cla16/u3_cla_4bit/n5
*333 u_adder_top/u1_cla16/u3_cla_4bit/n6
*334 u_adder_top/u1_cla16/u3_cla_4bit/n7
*335 u_adder_top/u1_cla16/u3_cla_4bit/n8
*336 u_adder_top/u1_cla16/u3_cla_4bit/u4_cla_logic_bit/n1
*337 u_adder_top/u1_cla16/u3_cla_4bit/u4_cla_logic_bit/n2
*338 u_adder_top/u1_cla16/u3_cla_4bit/u4_cla_logic_bit/n3
*339 u_adder_top/u1_cla16/u3_cla_4bit/u4_cla_logic_bit/n4
*340 u_adder_top/u1_cla16/u3_cla_4bit/u4_cla_logic_bit/n5
*341 u_adder_top/u1_cla16/u3_cla_4bit/u4_cla_logic_bit/n6
*342 u_adder_top/u1_cla16/u4_cla_logic/n1
*343 u_adder_top/u1_cla16/u4_cla_logic/n2
*344 u_adder_top/u1_cla16/u4_cla_logic/n3
*345 u_adder_top/u1_cla16/u4_cla_logic/n4
*346 u_adder_top/u2_cla16/carry_gen[0]
*347 u_adder_top/u2_cla16/carry_gen[1]
*348 u_adder_top/u2_cla16/carry_gen[2]
*349 u_adder_top/u2_cla16/carry_gen[3]
*350 u_adder_top/u2_cla16/gg[0]
*351 u_adder_top/u2_cla16/gg[1]
*352 u_adder_top/u2_cla16/gg[2]
*353 u_adder_top/u2_cla16/gg[3]
*354 u_adder_top/u2_cla16/pg[0]
*355 u_adder_top/u2_cla16/pg[1]
*356 u_adder_top/u2_cla16/pg[2]
*357 u_adder_top/u2_cla16/pg[3]
*358 u_adder_top/u2_cla16/sum[0]
*359 u_adder_top/u2_cla16/sum[10]
*360 u_adder_top/u2_cla16/sum[11]
*361 u_adder_top/u2_cla16/sum[12]
*362 u_adder_top/u2_cla16/sum[13]
*363 u_adder_top/u2_cla16/sum[14]
*364 u_adder_top/u2_cla16/sum[15]
*365 u_adder_top/u2_cla16/sum[1]
*366 u_adder_top/u2_cla16/sum[2]
*367 u_adder_top/u2_cla16/sum[3]
*368 u_adder_top/u2_cla16/sum[4]
*369 u_adder_top/u2_cla16/sum[5]
*370 u_adder_top/u2_cla16/sum[6]
*371 u_adder_top/u2_cla16/sum[7]
*372 u_adder_top/u2_cla16/sum[8]
*373 u_adder_top/u2_cla16/sum[9]
*374 u_adder_top/u2_cla16/u0_cla_4bit/carry_gen[0]