*SPEF "IEEE 1481-1999"
*DESIGN "adder_top"
*DATE "Sun Mar 13 10:00:40 2022"
*VENDOR "Synopsys Inc."
*PROGRAM "StarRC"
*VERSION "Q-2019.12-SP5-3"
*DESIGN_FLOW "PIN_CAP NONE" "NAME_SCOPE LOCAL"
*DIVIDER /
*DELIMITER :
*BUS_DELIMITER []
*T_UNIT 1.0 NS
*C_UNIT 1.0 FF
*R_UNIT 1.0 OHM
*L_UNIT 1.0 HENRY

// COMMENTS

// CORNER_NAME 
// OPERATING_TEMPERATURE 25
// GLOBAL_TEMPERATURE 25
// TCAD_GRD_FILE /home/user/projects/2022_spring/PDK/BE/StarRCXT/StarRCXT_HL18G_LPE_S3.7_a/StarRCXT_HL18G_STD_LPE_S3.7_a/StarRCXT_HL18G_M15_PnRDB_S3.7_a/HL18G_L28_STD_5LM_worstRC.nxtgrd
//   TCAD_TIME_STAMP Wed Feb 13 23:51:12 2013
//   TCADGRD_VERSION 43
// galaxy_comments_begin
//   local_nodeid
// galaxy_comments_end

*NAME_MAP
*459 carry_out
*460 carry_in
*461 rst_n
*462 clk
*463 sum_out[15]
*464 sum_out[14]
*465 sum_out[13]
*466 sum_out[12]
*467 sum_out[11]
*468 sum_out[10]
*469 sum_out[9]
*470 sum_out[8]
*471 sum_out[7]
*472 sum_out[6]
*473 sum_out[5]
*474 sum_out[4]
*475 sum_out[3]
*476 sum_out[2]
*477 sum_out[1]
*478 sum_out[0]
*479 b_in[15]
*480 b_in[14]
*481 b_in[13]
*482 b_in[12]
*483 b_in[11]
*484 b_in[10]
*485 b_in[9]
*486 b_in[8]
*487 b_in[7]
*488 b_in[6]
*489 b_in[5]
*490 b_in[4]
*491 b_in[3]
*492 b_in[2]
*493 b_in[1]
*494 b_in[0]
*495 a_in[15]
*496 a_in[14]
*497 a_in[13]
*498 a_in[12]
*499 a_in[11]
*500 a_in[10]
*501 a_in[9]
*502 a_in[8]
*503 a_in[7]
*504 a_in[6]
*505 a_in[5]
*506 a_in[4]
*507 a_in[3]
*508 a_in[2]
*509 a_in[1]
*510 a_in[0]
*511 CLKINVX8_G1B1I1
*512 CLKINVX8_G1B1I2
*513 CLKINVX8_G1B2I1
*514 INVX8_G1B1I3
*515 INVX8_G1B1I4
*516 U1
*517 U10
*518 U11
*519 U12
*520 U13
*521 U14
*522 U15
*523 U16
*524 U17
*525 U18
*526 U19
*527 U2
*528 U3
*529 U4
*530 U5
*531 U6
*532 U7
*533 U8
*534 U9
*535 a_reg_d_reg_0_
*536 a_reg_d_reg_10_
*537 a_reg_d_reg_11_
*538 a_reg_d_reg_12_
*539 a_reg_d_reg_13_
*540 a_reg_d_reg_14_
*541 a_reg_d_reg_15_
*542 a_reg_d_reg_1_
*543 a_reg_d_reg_2_
*544 a_reg_d_reg_3_
*545 a_reg_d_reg_4_
*546 a_reg_d_reg_5_
*547 a_reg_d_reg_6_
*548 a_reg_d_reg_7_
*549 a_reg_d_reg_8_
*550 a_reg_d_reg_9_
*551 a_reg_reg_0_
*552 a_reg_reg_10_
*553 a_reg_reg_11_
*554 a_reg_reg_12_
*555 a_reg_reg_13_
*556 a_reg_reg_14_
*557 a_reg_reg_15_
*558 a_reg_reg_1_
*559 a_reg_reg_2_
*560 a_reg_reg_3_
*561 a_reg_reg_4_
*562 a_reg_reg_5_
*563 a_reg_reg_6_
*564 a_reg_reg_7_
*565 a_reg_reg_8_
*566 a_reg_reg_9_
*567 b_reg_d2_reg_0_
*568 b_reg_d2_reg_10_
*569 b_reg_d2_reg_11_
*570 b_reg_d2_reg_12_
*571 b_reg_d2_reg_13_
*572 b_reg_d2_reg_14_
*573 b_reg_d2_reg_15_
*574 b_reg_d2_reg_1_
*575 b_reg_d2_reg_2_
*576 b_reg_d2_reg_3_
*577 b_reg_d2_reg_4_
*578 b_reg_d2_reg_5_
*579 b_reg_d2_reg_6_
*580 b_reg_d2_reg_7_
*581 b_reg_d2_reg_8_
*582 b_reg_d2_reg_9_
*583 b_reg_d_reg_0_
*584 b_reg_d_reg_10_
*585 b_reg_d_reg_11_
*586 b_reg_d_reg_12_
*587 b_reg_d_reg_13_
*588 b_reg_d_reg_14_
*589 b_reg_d_reg_15_
*590 b_reg_d_reg_1_
*591 b_reg_d_reg_2_
*592 b_reg_d_reg_3_
*593 b_reg_d_reg_4_
*594 b_reg_d_reg_5_
*595 b_reg_d_reg_6_
*596 b_reg_d_reg_7_
*597 b_reg_d_reg_8_
*598 b_reg_d_reg_9_
*599 b_reg_reg_0_
*600 b_reg_reg_10_
*601 b_reg_reg_11_
*602 b_reg_reg_12_
*603 b_reg_reg_13_
*604 b_reg_reg_14_
*605 b_reg_reg_15_
*606 b_reg_reg_1_
*607 b_reg_reg_2_
*608 b_reg_reg_3_
*609 b_reg_reg_4_
*610 b_reg_reg_5_
*611 b_reg_reg_6_
*612 b_reg_reg_7_
*613 b_reg_reg_8_
*614 b_reg_reg_9_
*615 c_in_reg_reg
*616 u1_cla16/carry_out_reg
*617 u1_cla16/sum_out_reg_0_
*618 u1_cla16/sum_out_reg_10_
*619 u1_cla16/sum_out_reg_11_
*620 u1_cla16/sum_out_reg_12_
*621 u1_cla16/sum_out_reg_13_
*622 u1_cla16/sum_out_reg_14_
*623 u1_cla16/sum_out_reg_15_
*624 u1_cla16/sum_out_reg_1_
*625 u1_cla16/sum_out_reg_2_
*626 u1_cla16/sum_out_reg_3_
*627 u1_cla16/sum_out_reg_4_
*628 u1_cla16/sum_out_reg_5_
*629 u1_cla16/sum_out_reg_6_
*630 u1_cla16/sum_out_reg_7_
*631 u1_cla16/sum_out_reg_8_
*632 u1_cla16/sum_out_reg_9_
*633 u1_cla16/u0_cla_4bit/U1
*634 u1_cla16/u0_cla_4bit/U10
*635 u1_cla16/u0_cla_4bit/U11
*636 u1_cla16/u0_cla_4bit/U12
*637 u1_cla16/u0_cla_4bit/U2
*638 u1_cla16/u0_cla_4bit/U3
*639 u1_cla16/u0_cla_4bit/U4
*640 u1_cla16/u0_cla_4bit/U5
*641 u1_cla16/u0_cla_4bit/U6
*642 u1_cla16/u0_cla_4bit/U7
*643 u1_cla16/u0_cla_4bit/U8
*644 u1_cla16/u0_cla_4bit/U9
*645 u1_cla16/u0_cla_4bit/u4_cla_logic_bit/U1
*646 u1_cla16/u0_cla_4bit/u4_cla_logic_bit/U10
*647 u1_cla16/u0_cla_4bit/u4_cla_logic_bit/U11
*648 u1_cla16/u0_cla_4bit/u4_cla_logic_bit/U2
*649 u1_cla16/u0_cla_4bit/u4_cla_logic_bit/U3
*650 u1_cla16/u0_cla_4bit/u4_cla_logic_bit/U4
*651 u1_cla16/u0_cla_4bit/u4_cla_logic_bit/U5
*652 u1_cla16/u0_cla_4bit/u4_cla_logic_bit/U6
*653 u1_cla16/u0_cla_4bit/u4_cla_logic_bit/U7
*654 u1_cla16/u0_cla_4bit/u4_cla_logic_bit/U8
*655 u1_cla16/u0_cla_4bit/u4_cla_logic_bit/U9
*656 u1_cla16/u1_cla_4bit/U1
*657 u1_cla16/u1_cla_4bit/U10
*658 u1_cla16/u1_cla_4bit/U11
*659 u1_cla16/u1_cla_4bit/U12
*660 u1_cla16/u1_cla_4bit/U2
*661 u1_cla16/u1_cla_4bit/U3
*662 u1_cla16/u1_cla_4bit/U4
*663 u1_cla16/u1_cla_4bit/U5
*664 u1_cla16/u1_cla_4bit/U6
*665 u1_cla16/u1_cla_4bit/U7
*666 u1_cla16/u1_cla_4bit/U8
*667 u1_cla16/u1_cla_4bit/U9
*668 u1_cla16/u1_cla_4bit/u4_cla_logic_bit/U1
*669 u1_cla16/u1_cla_4bit/u4_cla_logic_bit/U10
*670 u1_cla16/u1_cla_4bit/u4_cla_logic_bit/U11
*671 u1_cla16/u1_cla_4bit/u4_cla_logic_bit/U2
*672 u1_cla16/u1_cla_4bit/u4_cla_logic_bit/U3
*673 u1_cla16/u1_cla_4bit/u4_cla_logic_bit/U4
*674 u1_cla16/u1_cla_4bit/u4_cla_logic_bit/U5
*675 u1_cla16/u1_cla_4bit/u4_cla_logic_bit/U6
*676 u1_cla16/u1_cla_4bit/u4_cla_logic_bit/U7
*677 u1_cla16/u1_cla_4bit/u4_cla_logic_bit/U8
*678 u1_cla16/u1_cla_4bit/u4_cla_logic_bit/U9
*679 u1_cla16/u2_cla_4bit/U1
*680 u1_cla16/u2_cla_4bit/U10
*681 u1_cla16/u2_cla_4bit/U11
*682 u1_cla16/u2_cla_4bit/U12
*683 u1_cla16/u2_cla_4bit/U2
*684 u1_cla16/u2_cla_4bit/U3
*685 u1_cla16/u2_cla_4bit/U4
*686 u1_cla16/u2_cla_4bit/U5
*687 u1_cla16/u2_cla_4bit/U6
*688 u1_cla16/u2_cla_4bit/U7
*689 u1_cla16/u2_cla_4bit/U8
*690 u1_cla16/u2_cla_4bit/U9
*691 u1_cla16/u2_cla_4bit/u4_cla_logic_bit/U1
*692 u1_cla16/u2_cla_4bit/u4_cla_logic_bit/U10
*693 u1_cla16/u2_cla_4bit/u4_cla_logic_bit/U11
*694 u1_cla16/u2_cla_4bit/u4_cla_logic_bit/U2
*695 u1_cla16/u2_cla_4bit/u4_cla_logic_bit/U3
*696 u1_cla16/u2_cla_4bit/u4_cla_logic_bit/U4
*697 u1_cla16/u2_cla_4bit/u4_cla_logic_bit/U5
*698 u1_cla16/u2_cla_4bit/u4_cla_logic_bit/U6
*699 u1_cla16/u2_cla_4bit/u4_cla_logic_bit/U7
*700 u1_cla16/u2_cla_4bit/u4_cla_logic_bit/U8
*701 u1_cla16/u2_cla_4bit/u4_cla_logic_bit/U9
*702 u1_cla16/u3_cla_4bit/U1
*703 u1_cla16/u3_cla_4bit/U10
*704 u1_cla16/u3_cla_4bit/U11
*705 u1_cla16/u3_cla_4bit/U12
*706 u1_cla16/u3_cla_4bit/U2
*707 u1_cla16/u3_cla_4bit/U3
*708 u1_cla16/u3_cla_4bit/U4
*709 u1_cla16/u3_cla_4bit/U5
*710 u1_cla16/u3_cla_4bit/U6
*711 u1_cla16/u3_cla_4bit/U7
*712 u1_cla16/u3_cla_4bit/U8
*713 u1_cla16/u3_cla_4bit/U9
*714 u1_cla16/u3_cla_4bit/u4_cla_logic_bit/U1
*715 u1_cla16/u3_cla_4bit/u4_cla_logic_bit/U10
*716 u1_cla16/u3_cla_4bit/u4_cla_logic_bit/U11
*717 u1_cla16/u3_cla_4bit/u4_cla_logic_bit/U2
*718 u1_cla16/u3_cla_4bit/u4_cla_logic_bit/U3
*719 u1_cla16/u3_cla_4bit/u4_cla_logic_bit/U4
*720 u1_cla16/u3_cla_4bit/u4_cla_logic_bit/U5
*721 u1_cla16/u3_cla_4bit/u4_cla_logic_bit/U6
*722 u1_cla16/u3_cla_4bit/u4_cla_logic_bit/U7
*723 u1_cla16/u3_cla_4bit/u4_cla_logic_bit/U8
*724 u1_cla16/u3_cla_4bit/u4_cla_logic_bit/U9
*725 u1_cla16/u4_cla_logic/U1
*726 u1_cla16/u4_cla_logic/U2
*727 u1_cla16/u4_cla_logic/U3
*728 u1_cla16/u4_cla_logic/U4
*729 u1_cla16/u4_cla_logic/U5
*730 u1_cla16/u4_cla_logic/U6
*731 u1_cla16/u4_cla_logic/U7
*732 u1_cla16/u4_cla_logic/U8
*733 u2_cla16/carry_out_reg
*734 u2_cla16/sum_out_reg_0_
*735 u2_cla16/sum_out_reg_10_
*736 u2_cla16/sum_out_reg_11_
*737 u2_cla16/sum_out_reg_12_
*738 u2_cla16/sum_out_reg_13_
*739 u2_cla16/sum_out_reg_14_
*740 u2_cla16/sum_out_reg_15_
*741 u2_cla16/sum_out_reg_1_
*742 u2_cla16/sum_out_reg_2_
*743 u2_cla16/sum_out_reg_3_
*744 u2_cla16/sum_out_reg_4_
*745 u2_cla16/sum_out_reg_5_
*746 u2_cla16/sum_out_reg_6_
*747 u2_cla16/sum_out_reg_7_
*748 u2_cla16/sum_out_reg_8_
*749 u2_cla16/sum_out_reg_9_
*750 u2_cla16/u0_cla_4bit/U1
*751 u2_cla16/u0_cla_4bit/U10
*752 u2_cla16/u0_cla_4bit/U11
*753 u2_cla16/u0_cla_4bit/U12
*754 u2_cla16/u0_cla_4bit/U2
*755 u2_cla16/u0_cla_4bit/U3
*756 u2_cla16/u0_cla_4bit/U4
*757 u2_cla16/u0_cla_4bit/U5
*758 u2_cla16/u0_cla_4bit/U6
*759 u2_cla16/u0_cla_4bit/U7
*760 u2_cla16/u0_cla_4bit/U8
*761 u2_cla16/u0_cla_4bit/U9
*762 u2_cla16/u0_cla_4bit/u4_cla_logic_bit/U1
*763 u2_cla16/u0_cla_4bit/u4_cla_logic_bit/U10
*764 u2_cla16/u0_cla_4bit/u4_cla_logic_bit/U11
*765 u2_cla16/u0_cla_4bit/u4_cla_logic_bit/U2
*766 u2_cla16/u0_cla_4bit/u4_cla_logic_bit/U3
*767 u2_cla16/u0_cla_4bit/u4_cla_logic_bit/U4
*768 u2_cla16/u0_cla_4bit/u4_cla_logic_bit/U5
*769 u2_cla16/u0_cla_4bit/u4_cla_logic_bit/U6
*770 u2_cla16/u0_cla_4bit/u4_cla_logic_bit/U7
*771 u2_cla16/u0_cla_4bit/u4_cla_logic_bit/U8
*772 u2_cla16/u0_cla_4bit/u4_cla_logic_bit/U9
*773 u2_cla16/u1_cla_4bit/U1
*774 u2_cla16/u1_cla_4bit/U10
*775 u2_cla16/u1_cla_4bit/U11
*776 u2_cla16/u1_cla_4bit/U12
*777 u2_cla16/u1_cla_4bit/U2
*778 u2_cla16/u1_cla_4bit/U3
*779 u2_cla16/u1_cla_4bit/U4
*780 u2_cla16/u1_cla_4bit/U5
*781 u2_cla16/u1_cla_4bit/U6
*782 u2_cla16/u1_cla_4bit/U7
*783 u2_cla16/u1_cla_4bit/U8
*784 u2_cla16/u1_cla_4bit/U9
*785 u2_cla16/u1_cla_4bit/u4_cla_logic_bit/U1
*786 u2_cla16/u1_cla_4bit/u4_cla_logic_bit/U10
*787 u2_cla16/u1_cla_4bit/u4_cla_logic_bit/U11
*788 u2_cla16/u1_cla_4bit/u4_cla_logic_bit/U2
*789 u2_cla16/u1_cla_4bit/u4_cla_logic_bit/U3
*790 u2_cla16/u1_cla_4bit/u4_cla_logic_bit/U4
*791 u2_cla16/u1_cla_4bit/u4_cla_logic_bit/U5
*792 u2_cla16/u1_cla_4bit/u4_cla_logic_bit/U6
*793 u2_cla16/u1_cla_4bit/u4_cla_logic_bit/U7
*794 u2_cla16/u1_cla_4bit/u4_cla_logic_bit/U8
*795 u2_cla16/u1_cla_4bit/u4_cla_logic_bit/U9
*796 u2_cla16/u2_cla_4bit/U1
*797 u2_cla16/u2_cla_4bit/U10
*798 u2_cla16/u2_cla_4bit/U11
*799 u2_cla16/u2_cla_4bit/U12
*800 u2_cla16/u2_cla_4bit/U2
*801 u2_cla16/u2_cla_4bit/U3
*802 u2_cla16/u2_cla_4bit/U4
*803 u2_cla16/u2_cla_4bit/U5
*804 u2_cla16/u2_cla_4bit/U6
*805 u2_cla16/u2_cla_4bit/U7
*806 u2_cla16/u2_cla_4bit/U8
*807 u2_cla16/u2_cla_4bit/U9
*808 u2_cla16/u2_cla_4bit/u4_cla_logic_bit/U1
*809 u2_cla16/u2_cla_4bit/u4_cla_logic_bit/U10
*810 u2_cla16/u2_cla_4bit/u4_cla_logic_bit/U11
*811 u2_cla16/u2_cla_4bit/u4_cla_logic_bit/U2
*812 u2_cla16/u2_cla_4bit/u4_cla_logic_bit/U3
*813 u2_cla16/u2_cla_4bit/u4_cla_logic_bit/U4
*814 u2_cla16/u2_cla_4bit/u4_cla_logic_bit/U5
*815 u2_cla16/u2_cla_4bit/u4_cla_logic_bit/U6
*816 u2_cla16/u2_cla_4bit/u4_cla_logic_bit/U7
*817 u2_cla16/u2_cla_4bit/u4_cla_logic_bit/U8
*818 u2_cla16/u2_cla_4bit/u4_cla_logic_bit/U9
*819 u2_cla16/u3_cla_4bit/U1
*820 u2_cla16/u3_cla_4bit/U10
*821 u2_cla16/u3_cla_4bit/U11
*822 u2_cla16/u3_cla_4bit/U12
*823 u2_cla16/u3_cla_4bit/U2
*824 u2_cla16/u3_cla_4bit/U3
*825 u2_cla16/u3_cla_4bit/U4
*826 u2_cla16/u3_cla_4bit/U5
*827 u2_cla16/u3_cla_4bit/U6
*828 u2_cla16/u3_cla_4bit/U7
*829 u2_cla16/u3_cla_4bit/U8
*830 u2_cla16/u3_cla_4bit/U9
*831 u2_cla16/u3_cla_4bit/u4_cla_logic_bit/U1
*832 u2_cla16/u3_cla_4bit/u4_cla_logic_bit/U10
*833 u2_cla16/u3_cla_4bit/u4_cla_logic_bit/U11
*834 u2_cla16/u3_cla_4bit/u4_cla_logic_bit/U2
*835 u2_cla16/u3_cla_4bit/u4_cla_logic_bit/U3
*836 u2_cla16/u3_cla_4bit/u4_cla_logic_bit/U4
*837 u2_cla16/u3_cla_4bit/u4_cla_logic_bit/U5
*838 u2_cla16/u3_cla_4bit/u4_cla_logic_bit/U6
*839 u2_cla16/u3_cla_4bit/u4_cla_logic_bit/U7
*840 u2_cla16/u3_cla_4bit/u4_cla_logic_bit/U8
*841 u2_cla16/u3_cla_4bit/u4_cla_logic_bit/U9
*842 u2_cla16/u4_cla_logic/U1
*843 u2_cla16/u4_cla_logic/U2
*844 u2_cla16/u4_cla_logic/U3
*845 u2_cla16/u4_cla_logic/U4
*846 u2_cla16/u4_cla_logic/U5
*847 u2_cla16/u4_cla_logic/U6
*848 u2_cla16/u4_cla_logic/U7
*849 u2_cla16/u4_cla_logic/U8
*850 u_rca16/carry_out_reg
*851 u_rca16/sum_out_reg_0_
*852 u_rca16/sum_out_reg_10_
*853 u_rca16/sum_out_reg_11_
*854 u_rca16/sum_out_reg_12_
*855 u_rca16/sum_out_reg_13_
*856 u_rca16/sum_out_reg_14_
*857 u_rca16/sum_out_reg_15_
*858 u_rca16/sum_out_reg_1_
*859 u_rca16/sum_out_reg_2_
*860 u_rca16/sum_out_reg_3_
*861 u_rca16/sum_out_reg_4_
*862 u_rca16/sum_out_reg_5_
*863 u_rca16/sum_out_reg_6_
*864 u_rca16/sum_out_reg_7_
*865 u_rca16/sum_out_reg_8_
*866 u_rca16/sum_out_reg_9_
*867 u_rca16/u0/U1
*868 u_rca16/u0/U2
*869 u_rca16/u0/U3
*870 u_rca16/u0/U4
*871 u_rca16/u1/U1
*872 u_rca16/u1/U2
*873 u_rca16/u1/U3
*874 u_rca16/u1/U4
*875 u_rca16/u10/U1
*876 u_rca16/u10/U2
*877 u_rca16/u10/U3
*878 u_rca16/u10/U4
*879 u_rca16/u11/U1
*880 u_rca16/u11/U2
*881 u_rca16/u11/U3
*882 u_rca16/u11/U4
*883 u_rca16/u12/U1
*884 u_rca16/u12/U2
*885 u_rca16/u12/U3
*886 u_rca16/u12/U4
*887 u_rca16/u13/U1
*888 u_rca16/u13/U2
*889 u_rca16/u13/U3
*890 u_rca16/u13/U4
*891 u_rca16/u14/U1
*892 u_rca16/u14/U2
*893 u_rca16/u14/U3
*894 u_rca16/u14/U4
*895 u_rca16/u15/U1
*896 u_rca16/u15/U2
*897 u_rca16/u15/U3
*898 u_rca16/u15/U4
*899 u_rca16/u2/U1
*900 u_rca16/u2/U2
*901 u_rca16/u2/U3
*902 u_rca16/u2/U4
*903 u_rca16/u3/U1
*904 u_rca16/u3/U2
*905 u_rca16/u3/U3
*906 u_rca16/u3/U4
*907 u_rca16/u4/U1
*908 u_rca16/u4/U2
*909 u_rca16/u4/U3
*910 u_rca16/u4/U4
*911 u_rca16/u5/U1
*912 u_rca16/u5/U2
*913 u_rca16/u5/U3
*914 u_rca16/u5/U4
*915 u_rca16/u6/U1
*916 u_rca16/u6/U2
*917 u_rca16/u6/U3
*918 u_rca16/u6/U4
*919 u_rca16/u7/U1
*920 u_rca16/u7/U2
*921 u_rca16/u7/U3
*922 u_rca16/u7/U4
*923 u_rca16/u8/U1
*924 u_rca16/u8/U2
*925 u_rca16/u8/U3
*926 u_rca16/u8/U4
*927 u_rca16/u9/U1
*928 u_rca16/u9/U2
*929 u_rca16/u9/U3
*930 u_rca16/u9/U4
*1 carry_out
*2 carry_in
*3 rst_n
*4 clk
*5 sum_out[15]
*6 sum_out[14]
*7 sum_out[13]
*8 sum_out[12]
*9 sum_out[11]
*10 sum_out[10]
*11 sum_out[9]
*12 sum_out[8]
*13 sum_out[7]
*14 sum_out[6]
*15 sum_out[5]
*16 sum_out[4]
*17 sum_out[3]
*18 sum_out[2]
*19 sum_out[1]
*20 sum_out[0]
*21 b_in[15]
*22 b_in[14]
*23 b_in[13]
*24 b_in[12]
*25 b_in[11]
*26 b_in[10]
*27 b_in[9]
*28 b_in[8]
*29 b_in[7]
*30 b_in[6]
*31 b_in[5]
*32 b_in[4]
*33 b_in[3]
*34 b_in[2]
*35 b_in[1]
*36 b_in[0]
*37 a_in[15]
*38 a_in[14]
*39 a_in[13]
*40 a_in[12]
*41 a_in[11]
*42 a_in[10]
*43 a_in[9]
*44 a_in[8]
*45 a_in[7]
*46 a_in[6]
*47 a_in[5]
*48 a_in[4]
*49 a_in[3]
*50 a_in[2]
*51 a_in[1]
*52 a_in[0]
*56 a_reg[0]
*57 a_reg[10]
*58 a_reg[11]
*59 a_reg[12]
*60 a_reg[13]
*61 a_reg[14]
*62 a_reg[15]
*63 a_reg[1]
*64 a_reg[2]
*65 a_reg[3]
*66 a_reg[4]
*67 a_reg[5]
*68 a_reg[6]
*69 a_reg[7]
*70 a_reg[8]
*71 a_reg[9]
*72 a_reg_d[0]
*73 a_reg_d[10]
*74 a_reg_d[11]
*75 a_reg_d[12]
*76 a_reg_d[13]
*77 a_reg_d[14]
*78 a_reg_d[15]
*79 a_reg_d[1]
*80 a_reg_d[2]
*81 a_reg_d[3]
*82 a_reg_d[4]
*83 a_reg_d[5]
*84 a_reg_d[6]
*85 a_reg_d[7]
*86 a_reg_d[8]
*87 a_reg_d[9]
*88 b_reg[0]
*89 b_reg[10]
*90 b_reg[11]
*91 b_reg[12]
*92 b_reg[13]
*93 b_reg[14]
*94 b_reg[15]
*95 b_reg[1]
*96 b_reg[2]
*97 b_reg[3]
*98 b_reg[4]
*99 b_reg[5]
*100 b_reg[6]
*101 b_reg[7]
*102 b_reg[8]
*103 b_reg[9]
*104 b_reg_d2[0]
*105 b_reg_d2[10]
*106 b_reg_d2[11]
*107 b_reg_d2[12]
*108 b_reg_d2[13]
*109 b_reg_d2[14]
*110 b_reg_d2[15]
*111 b_reg_d2[1]
*112 b_reg_d2[2]
*113 b_reg_d2[3]
*114 b_reg_d2[4]
*115 b_reg_d2[5]
*116 b_reg_d2[6]
*117 b_reg_d2[7]
*118 b_reg_d2[8]
*119 b_reg_d2[9]
*120 b_reg_d[0]
*121 b_reg_d[10]
*122 b_reg_d[11]
*123 b_reg_d[12]
*124 b_reg_d[13]
*125 b_reg_d[14]
*126 b_reg_d[15]
*127 b_reg_d[1]
*128 b_reg_d[2]
*129 b_reg_d[3]
*130 b_reg_d[4]
*131 b_reg_d[5]
*132 b_reg_d[6]
*133 b_reg_d[7]
*134 b_reg_d[8]
*135 b_reg_d[9]
*136 c_in_reg
*137 cla_carry_out
*138 cla_sum[0]
*139 cla_sum[10]
*140 cla_sum[11]
*141 cla_sum[12]
*142 cla_sum[13]
*143 cla_sum[14]
*144 cla_sum[15]
*145 cla_sum[1]
*146 cla_sum[2]
*147 cla_sum[3]
*148 cla_sum[4]
*149 cla_sum[5]
*150 cla_sum[6]
*151 cla_sum[7]
*152 cla_sum[8]
*153 cla_sum[9]
*154 clk_G1B1I1
*155 clk_G1B2I1
*156 clk_G1B2I2
*157 clk_G1B2I3
*158 clk_G1B2I4
*159 n1
*160 n18
*161 n19
*162 n2
*163 n20
*164 n21
*165 n22
*166 n23
*167 n24
*168 n25
*169 n26
*170 n27
*171 n28
*172 n29
*173 n30
*174 n31
*175 n32
*176 n33
*177 n34
*178 rca_carry_w
*179 rca_sum_w[0]
*180 rca_sum_w[10]
*181 rca_sum_w[11]
*182 rca_sum_w[12]
*183 rca_sum_w[13]
*184 rca_sum_w[14]
*185 rca_sum_w[15]
*186 rca_sum_w[1]
*187 rca_sum_w[2]
*188 rca_sum_w[3]
*189 rca_sum_w[4]
*190 rca_sum_w[5]
*191 rca_sum_w[6]
*192 rca_sum_w[7]
*193 rca_sum_w[8]
*194 rca_sum_w[9]
*195 u1_cla16/carry_gen[0]
*196 u1_cla16/carry_gen[1]
*197 u1_cla16/carry_gen[2]
*198 u1_cla16/carry_gen[3]
*199 u1_cla16/gg[0]
*200 u1_cla16/gg[1]
*201 u1_cla16/gg[2]
*202 u1_cla16/gg[3]
*203 u1_cla16/pg[0]
*204 u1_cla16/pg[1]
*205 u1_cla16/pg[2]
*206 u1_cla16/pg[3]
*207 u1_cla16/sum[0]
*208 u1_cla16/sum[10]
*209 u1_cla16/sum[11]
*210 u1_cla16/sum[12]
*211 u1_cla16/sum[13]
*212 u1_cla16/sum[14]
*213 u1_cla16/sum[15]
*214 u1_cla16/sum[1]
*215 u1_cla16/sum[2]
*216 u1_cla16/sum[3]
*217 u1_cla16/sum[4]
*218 u1_cla16/sum[5]
*219 u1_cla16/sum[6]
*220 u1_cla16/sum[7]
*221 u1_cla16/sum[8]
*222 u1_cla16/sum[9]
*223 u1_cla16/u0_cla_4bit/carry_gen[0]
*224 u1_cla16/u0_cla_4bit/carry_gen[1]
*225 u1_cla16/u0_cla_4bit/carry_gen[2]
*226 u1_cla16/u0_cla_4bit/g[0]
*227 u1_cla16/u0_cla_4bit/g[1]
*228 u1_cla16/u0_cla_4bit/g[2]
*229 u1_cla16/u0_cla_4bit/g[3]
*230 u1_cla16/u0_cla_4bit/n1
*231 u1_cla16/u0_cla_4bit/n2
*232 u1_cla16/u0_cla_4bit/n3
*233 u1_cla16/u0_cla_4bit/n4
*234 u1_cla16/u0_cla_4bit/u4_cla_logic_bit/n1
*235 u1_cla16/u0_cla_4bit/u4_cla_logic_bit/n2
*236 u1_cla16/u0_cla_4bit/u4_cla_logic_bit/n3
*237 u1_cla16/u0_cla_4bit/u4_cla_logic_bit/n4
*238 u1_cla16/u0_cla_4bit/u4_cla_logic_bit/n5
*239 u1_cla16/u0_cla_4bit/u4_cla_logic_bit/n6
*240 u1_cla16/u1_cla_4bit/carry_gen[0]
*241 u1_cla16/u1_cla_4bit/carry_gen[1]
*242 u1_cla16/u1_cla_4bit/carry_gen[2]
*243 u1_cla16/u1_cla_4bit/g[0]
*244 u1_cla16/u1_cla_4bit/g[1]
*245 u1_cla16/u1_cla_4bit/g[2]
*246 u1_cla16/u1_cla_4bit/g[3]
*247 u1_cla16/u1_cla_4bit/n5
*248 u1_cla16/u1_cla_4bit/n6
*249 u1_cla16/u1_cla_4bit/n7
*250 u1_cla16/u1_cla_4bit/n8
*251 u1_cla16/u1_cla_4bit/u4_cla_logic_bit/n1
*252 u1_cla16/u1_cla_4bit/u4_cla_logic_bit/n2
*253 u1_cla16/u1_cla_4bit/u4_cla_logic_bit/n3
*254 u1_cla16/u1_cla_4bit/u4_cla_logic_bit/n4
*255 u1_cla16/u1_cla_4bit/u4_cla_logic_bit/n5
*256 u1_cla16/u1_cla_4bit/u4_cla_logic_bit/n6
*257 u1_cla16/u2_cla_4bit/carry_gen[0]
*258 u1_cla16/u2_cla_4bit/carry_gen[1]
*259 u1_cla16/u2_cla_4bit/carry_gen[2]
*260 u1_cla16/u2_cla_4bit/g[0]
*261 u1_cla16/u2_cla_4bit/g[1]
*262 u1_cla16/u2_cla_4bit/g[2]
*263 u1_cla16/u2_cla_4bit/g[3]
*264 u1_cla16/u2_cla_4bit/n5
*265 u1_cla16/u2_cla_4bit/n6
*266 u1_cla16/u2_cla_4bit/n7
*267 u1_cla16/u2_cla_4bit/n8
*268 u1_cla16/u2_cla_4bit/u4_cla_logic_bit/n1
*269 u1_cla16/u2_cla_4bit/u4_cla_logic_bit/n2
*270 u1_cla16/u2_cla_4bit/u4_cla_logic_bit/n3
*271 u1_cla16/u2_cla_4bit/u4_cla_logic_bit/n4
*272 u1_cla16/u2_cla_4bit/u4_cla_logic_bit/n5
*273 u1_cla16/u2_cla_4bit/u4_cla_logic_bit/n6
*274 u1_cla16/u3_cla_4bit/carry_gen[0]
*275 u1_cla16/u3_cla_4bit/carry_gen[1]
*276 u1_cla16/u3_cla_4bit/carry_gen[2]
*277 u1_cla16/u3_cla_4bit/g[0]
*278 u1_cla16/u3_cla_4bit/g[1]
*279 u1_cla16/u3_cla_4bit/g[2]
*280 u1_cla16/u3_cla_4bit/g[3]
*281 u1_cla16/u3_cla_4bit/n5
*282 u1_cla16/u3_cla_4bit/n6
*283 u1_cla16/u3_cla_4bit/n7
*284 u1_cla16/u3_cla_4bit/n8
*285 u1_cla16/u3_cla_4bit/u4_cla_logic_bit/n1
*286 u1_cla16/u3_cla_4bit/u4_cla_logic_bit/n2
*287 u1_cla16/u3_cla_4bit/u4_cla_logic_bit/n3
*288 u1_cla16/u3_cla_4bit/u4_cla_logic_bit/n4
*289 u1_cla16/u3_cla_4bit/u4_cla_logic_bit/n5
*290 u1_cla16/u3_cla_4bit/u4_cla_logic_bit/n6
*291 u1_cla16/u4_cla_logic/n1
*292 u1_cla16/u4_cla_logic/n2
*293 u1_cla16/u4_cla_logic/n3
*294 u1_cla16/u4_cla_logic/n4
*295 u2_cla16/carry_gen[0]
*296 u2_cla16/carry_gen[1]
*297 u2_cla16/carry_gen[2]
*298 u2_cla16/carry_gen[3]
*299 u2_cla16/gg[0]
*300 u2_cla16/gg[1]
*301 u2_cla16/gg[2]
*302 u2_cla16/gg[3]
*303 u2_cla16/pg[0]
*304 u2_cla16/pg[1]
*305 u2_cla16/pg[2]
*306 u2_cla16/pg[3]
*307 u2_cla16/sum[0]
*308 u2_cla16/sum[10]
*309 u2_cla16/sum[11]
*310 u2_cla16/sum[12]
*311 u2_cla16/sum[13]
*312 u2_cla16/sum[14]
*313 u2_cla16/sum[15]
*314 u2_cla16/sum[1]
*315 u2_cla16/sum[2]
*316 u2_cla16/sum[3]
*317 u2_cla16/sum[4]
*318 u2_cla16/sum[5]
*319 u2_cla16/sum[6]
*320 u2_cla16/sum[7]
*321 u2_cla16/sum[8]
*322 u2_cla16/sum[9]
*323 u2_cla16/u0_cla_4bit/carry_gen[0]
*324 u2_cla16/u0_cla_4bit/carry_gen[1]
*325 u2_cla16/u0_cla_4bit/carry_gen[2]
*326 u2_cla16/u0_cla_4bit/g[0]
*327 u2_cla16/u0_cla_4bit/g[1]
*328 u2_cla16/u0_cla_4bit/g[2]
*329 u2_cla16/u0_cla_4bit/g[3]
*330 u2_cla16/u0_cla_4bit/n5
*331 u2_cla16/u0_cla_4bit/n6
*332 u2_cla16/u0_cla_4bit/n7
*333 u2_cla16/u0_cla_4bit/n8
*334 u2_cla16/u0_cla_4bit/u4_cla_logic_bit/n1
*335 u2_cla16/u0_cla_4bit/u4_cla_logic_bit/n2
*336 u2_cla16/u0_cla_4bit/u4_cla_logic_bit/n3
*337 u2_cla16/u0_cla_4bit/u4_cla_logic_bit/n4
*338 u2_cla16/u0_cla_4bit/u4_cla_logic_bit/n5
*339 u2_cla16/u0_cla_4bit/u4_cla_logic_bit/n6
*340 u2_cla16/u1_cla_4bit/carry_gen[0]
*341 u2_cla16/u1_cla_4bit/carry_gen[1]
*342 u2_cla16/u1_cla_4bit/carry_gen[2]
*343 u2_cla16/u1_cla_4bit/g[0]
*344 u2_cla16/u1_cla_4bit/g[1]
*345 u2_cla16/u1_cla_4bit/g[2]
*346 u2_cla16/u1_cla_4bit/g[3]
*347 u2_cla16/u1_cla_4bit/n5
*348 u2_cla16/u1_cla_4bit/n6
*349 u2_cla16/u1_cla_4bit/n7
*350 u2_cla16/u1_cla_4bit/n8
*351 u2_cla16/u1_cla_4bit/u4_cla_logic_bit/n1
*352 u2_cla16/u1_cla_4bit/u4_cla_logic_bit/n2
*353 u2_cla16/u1_cla_4bit/u4_cla_logic_bit/n3
*354 u2_cla16/u1_cla_4bit/u4_cla_logic_bit/n4
*355 u2_cla16/u1_cla_4bit/u4_cla_logic_bit/n5
*356 u2_cla16/u1_cla_4bit/u4_cla_logic_bit/n6
*357 u2_cla16/u2_cla_4bit/carry_gen[0]
*358 u2_cla16/u2_cla_4bit/carry_gen[1]
*359 u2_cla16/u2_cla_4bit/carry_gen[2]
*360 u2_cla16/u2_cla_4bit/g[0]
*361 u2_cla16/u2_cla_4bit/g[1]
*362 u2_cla16/u2_cla_4bit/g[2]
*363 u2_cla16/u2_cla_4bit/g[3]
*364 u2_cla16/u2_cla_4bit/n5
*365 u2_cla16/u2_cla_4bit/n6
*366 u2_cla16/u2_cla_4bit/n7
*367 u2_cla16/u2_cla_4bit/n8
*368 u2_cla16/u2_cla_4bit/u4_cla_logic_bit/n1
*369 u2_cla16/u2_cla_4bit/u4_cla_logic_bit/n2
*370 u2_cla16/u2_cla_4bit/u4_cla_logic_bit/n3
*371 u2_cla16/u2_cla_4bit/u4_cla_logic_bit/n4
*372 u2_cla16/u2_cla_4bit/u4_cla_logic_bit/n5
*373 u2_cla16/u2_cla_4bit/u4_cla_logic_bit/n6
*374 u2_cla16/u3_cla_4bit/carry_gen[0]
*375 u2_cla16/u3_cla_4bit/carry_gen[1]
*376 u2_cla16/u3_cla_4bit/carry_gen[2]
*377 u2_cla16/u3_cla_4bit/g[0]
*378 u2_cla16/u3_cla_4bit/g[1]
*379 u2_cla16/u3_cla_4bit/g[2]
*380 u2_cla16/u3_cla_4bit/g[3]
*381 u2_cla16/u3_cla_4bit/n5
*382 u2_cla16/u3_cla_4bit/n6
*383 u2_cla16/u3_cla_4bit/n7
*384 u2_cla16/u3_cla_4bit/n8
*385 u2_cla16/u3_cla_4bit/u4_cla_logic_bit/n1
*386 u2_cla16/u3_cla_4bit/u4_cla_logic_bit/n2
*387 u2_cla16/u3_cla_4bit/u4_cla_logic_bit/n3
*388 u2_cla16/u3_cla_4bit/u4_cla_logic_bit/n4
*389 u2_cla16/u3_cla_4bit/u4_cla_logic_bit/n5
*390 u2_cla16/u3_cla_4bit/u4_cla_logic_bit/n6
*391 u2_cla16/u4_cla_logic/n1
*392 u2_cla16/u4_cla_logic/n2
*393 u2_cla16/u4_cla_logic/n3
*394 u2_cla16/u4_cla_logic/n4
*395 u_rca16/carry[0]
*396 u_rca16/carry[10]
*397 u_rca16/carry[11]
*398 u_rca16/carry[12]
*399 u_rca16/carry[13]
*400 u_rca16/carry[14]
*401 u_rca16/carry[15]
*402 u_rca16/carry[1]
*403 u_rca16/carry[2]
*404 u_rca16/carry[3]
*405 u_rca16/carry[4]
*406 u_rca16/carry[5]
*407 u_rca16/carry[6]
*408 u_rca16/carry[7]
*409 u_rca16/carry[8]
*410 u_rca16/carry[9]
*411 u_rca16/sum[0]
*412 u_rca16/sum[10]
*413 u_rca16/sum[11]
*414 u_rca16/sum[12]
*415 u_rca16/sum[13]
*416 u_rca16/sum[14]
*417 u_rca16/sum[15]
*418 u_rca16/sum[1]
*419 u_rca16/sum[2]
*420 u_rca16/sum[3]
*421 u_rca16/sum[4]
*422 u_rca16/sum[5]
*423 u_rca16/sum[6]
*424 u_rca16/sum[7]
*425 u_rca16/sum[8]
*426 u_rca16/sum[9]
*427 u_rca16/u0/n1
*428 u_rca16/u0/n2
*429 u_rca16/u1/n1
*430 u_rca16/u1/n2
*431 u_rca16/u10/n1
*432 u_rca16/u10/n2
*433 u_rca16/u11/n1
*434 u_rca16/u11/n2
*435 u_rca16/u12/n1
*436 u_rca16/u12/n2
*437 u_rca16/u13/n1
*438 u_rca16/u13/n2
*439 u_rca16/u14/n1
*440 u_rca16/u14/n2
*441 u_rca16/u15/n1
*442 u_rca16/u15/n2
*443 u_rca16/u2/n1
*444 u_rca16/u2/n2
*445 u_rca16/u3/n1
*446 u_rca16/u3/n2
*447 u_rca16/u4/n1
*448 u_rca16/u4/n2
*449 u_rca16/u5/n1
*450 u_rca16/u5/n2
*451 u_rca16/u6/n1
*452 u_rca16/u6/n2
*453 u_rca16/u7/n1
*454 u_rca16/u7/n2
*455 u_rca16/u8/n1
*456 u_rca16/u8/n2
*457 u_rca16/u9/n1
*458 u_rca16/u9/n2

*PORTS

*459 O
*460 I
*461 I
*462 I
*463 O
*464 O
*465 O
*466 O
*467 O
*468 O
*469 O
*470 O
*471 O
*472 O
*473 O
*474 O
*475 O
*476 O
*477 O
*478 O
*479 I
*480 I
*481 I
*482 I
*483 I
*484 I
*485 I
*486 I
*487 I
*488 I
*489 I
*490 I
*491 I
*492 I
*493 I
*494 I
*495 I
*496 I
*497 I
*498 I
*499 I
*500 I
*501 I
*502 I
*503 I
*504 I
*505 I
*506 I
*507 I
*508 I
*509 I
*510 I

// *LAYER_MAP

// *0 SUBSTRATE
// *1 poly    ITF=NPO_S
// *2 metal1    ITF=M1
// *3 metal2    ITF=M2
// *4 metal3    ITF=M3
// *5 metal4    ITF=M4
// *6 metal5    ITF=M5
// *7 via1    ITF=via1
// *8 via2    ITF=via2
// *9 via3    ITF=via3
// *10 via4    ITF=via4

*D_NET *1 16.7338

*CONN
*P *459 O *C 351.660 30.280
*I *528:Y O *C 250.150 112.040 *D CLKBUFX2
*N *1:2 *C 333.275 30.280
*N *1:3 *C 250.150 112.040

*CAP
1 *528:Y 5.24837
2 *1:2 11.4854
3 *1:3 0.0

*RES
1 *459 *1:2 7.17603
2 *528:Y *1:3 0.001
3 *528:Y *1:2 99.7408
*END

*D_NET *2 14.4475

*CONN
*P *460 I *C 0.070 199.960
*I *615:D I *C 102.970 182.040
*N *2:2 *C 100.000 199.960
*N *2:3 *C 102.970 182.040

*CAP
1 *460 4.61136
2 *615:D 1.35831
3 *2:2 8.47787
4 *2:3 0.0

*RES
1 *460 *2:2 45.7188
2 *615:D *2:3 0.001
3 *615:D *2:2 29.5904
*END

*D_NET *3 77.9857

*CONN
*P *461 I *C 0.265 189.880
*I *516:A I *C 176.890 138.360
*I *527:A I *C 178.870 192.680
*I *539:RN I *C 186.980 163.570
*I *540:RN I *C 194.710 147.320
*I *571:RN I *C 221.770 133.320
*I *572:RN I *C 248.830 177.560
*I *573:RN I *C 221.770 143.400
*I *587:RN I *C 205.930 123.240
*I *588:RN I *C 234.970 147.320
*I *589:RN I *C 207.910 133.320
*I *605:RN I *C 199.330 107.000
*I *616:RN I *C 213.850 173.640
*I *619:RN I *C 188.770 127.160
*I *620:RN I *C 231.670 203.880
*I *621:RN I *C 218.470 193.800
*I *622:RN I *C 231.860 163.570
*I *623:RN I *C 234.310 157.400
*I *733:RN I *C 245.530 113.160
*I *734:RN I *C 248.170 107.000
*I *735:RN I *C 221.770 127.160
*I *736:RN I *C 229.690 113.160
*I *737:RN I *C 248.830 157.400
*I *738:RN I *C 248.830 187.640
*I *739:RN I *C 248.830 197.720
*I *741:RN I *C 232.330 103.080
*I *742:RN I *C 236.290 127.160
*I *743:RN I *C 235.160 137.230
*I *744:RN I *C 248.830 137.240
*I *745:RN I *C 248.830 123.240
*I *746:RN I *C 248.830 147.320
*I *747:RN I *C 248.170 167.480
*I *748:RN I *C 230.350 117.080
*I *749:RN I *C 217.810 103.080
*I *855:RN I *C 188.960 153.490
*I *856:RN I *C 207.910 143.400
*I *857:RN I *C 220.450 147.320
*N *3:37 *C 230.350 110.360
*N *3:38 *C 234.310 147.320
*N *3:39 *C 248.830 147.320
*N *3:40 *C 230.870 126.600
*N *3:41 *C 176.890 138.360
*N *3:42 *C 178.870 192.680
*N *3:43 *C 188.770 127.160
*N *3:44 *C 194.710 147.320
*N *3:45 *C 199.330 107.000
*N *3:46 *C 205.930 123.240
*N *3:47 *C 207.910 133.320
*N *3:48 *C 207.910 143.400
*N *3:49 *C 213.850 173.640
*N *3:50 *C 217.810 103.080
*N *3:51 *C 218.470 193.800
*N *3:52 *C 218.470 193.800
*N *3:53 *C 220.450 147.320
*N *3:54 *C 221.770 127.160
*N *3:55 *C 221.770 127.160
*N *3:56 *C 221.770 133.320
*N *3:57 *C 221.770 143.400
*N *3:58 *C 229.690 113.160
*N *3:59 *C 230.350 117.080
*N *3:60 *C 230.350 117.080
*N *3:61 *C 231.670 203.880
*N *3:62 *C 232.330 103.080
*N *3:63 *C 234.310 157.400
*N *3:64 *C 234.310 157.400
*N *3:65 *C 234.970 147.320
*N *3:66 *C 236.290 127.160
*N *3:67 *C 245.530 113.160
*N *3:68 *C 245.530 113.160
*N *3:69 *C 248.170 107.000
*N *3:70 *C 248.170 167.480
*N *3:71 *C 248.830 123.240
*N *3:72 *C 248.830 137.240
*N *3:73 *C 248.830 147.320
*N *3:74 *C 248.830 157.400
*N *3:75 *C 248.830 157.400
*N *3:76 *C 248.830 177.560
*N *3:77 *C 248.830 177.560
*N *3:78 *C 248.830 187.640
*N *3:79 *C 248.830 187.640
*N *3:80 *C 248.830 197.720
*N *3:81 *C 178.870 191.560
*N *3:82 *C 188.770 138.360
*N *3:83 *C 189.430 153.480
*N *3:84 *C 192.730 146.760
*N *3:85 *C 194.710 146.760
*N *3:86 *C 207.910 143.400
*N *3:87 *C 213.850 191.560
*N *3:88 *C 217.810 103.640
*N *3:89 *C 220.450 146.760
*N *3:90 *C 231.670 103.640
*N *3:91 *C 231.670 110.360
*N *3:92 *C 234.310 127.160
*N *3:93 *C 234.310 137.240
*N *3:94 *C 234.310 143.400
*N *3:95 *C 234.310 163.560
*N *3:96 *C 236.290 197.160
*N *3:97 *C 245.530 110.360
*N *3:98 *C 246.850 163.560
*N *3:99 *C 246.850 167.480
*N *3:100 *C 248.830 197.160
*N *3:101 *C 207.665 133.880
*N *3:102 *C 208.275 146.760
*N *3:103 *C 222.305 143.400
*N *3:104 *C 0.140 189.880

*CAP
1 *461 6.19072
2 *516:A 0.426439
3 *527:A 0.127332
4 *539:RN 0.777622
5 *540:RN 0.0772288
6 *573:RN 0.101454
7 *587:RN 0.799996
8 *588:RN 0.00244218
9 *589:RN 0.0793332
10 *605:RN 1.29163
11 *616:RN 1.68289
12 *619:RN 1.04501
13 *620:RN 0.748726
14 *622:RN 0.3297
15 *734:RN 0.341326
16 *736:RN 0.00605635
17 *741:RN 0.00764488
18 *742:RN 0.0708397
19 *743:RN 0.336213
20 *744:RN 0.0613609
21 *745:RN 0.21287
22 *747:RN 0.110448
23 *749:RN 0.0681372
24 *855:RN 0.224664
25 *856:RN 0.0987251
26 *857:RN 0.0763558
27 *3:37 1.22264
28 *3:38 1.59831
29 *3:39 3.12561
30 *3:40 1.7834
31 *3:52 1.36203
32 *3:55 1.11213
33 *3:60 0.305548
34 *3:64 0.868818
35 *3:68 0.220628
36 *3:77 2.56022
37 *3:81 14.1659
38 *3:82 2.40947
39 *3:83 1.3642
40 *3:84 1.40792
41 *3:85 1.65694
42 *3:86 0.955088
43 *3:87 3.52075
44 *3:88 3.60052
45 *3:89 0.276808
46 *3:90 0.913101
47 *3:91 1.61651
48 *3:92 0.830697
49 *3:93 1.73147
50 *3:95 2.02073
51 *3:96 3.13574
52 *3:97 2.09571
53 *3:98 0.242827
54 *3:99 1.66257
55 *3:100 0.114309
56 *3:101 1.52342
57 *3:102 1.44731
58 *3:103 1.75046
59 *3:104 0.0887266

*RES
1 *461 *3:81 98.1992
2 *461 *3:104 0.001
3 *516:A *3:41 0.001
4 *516:A *3:82 26.0484
5 *527:A *3:42 0.001
6 *527:A *3:81 21.2159
7 *539:RN *3:83 27.0053
8 *540:RN *3:44 0.001
9 *540:RN *3:85 21.0077
10 *571:RN *3:56 0.001
11 *571:RN *3:55 13.4106
12 *572:RN *3:77 10.3402
13 *572:RN *3:76 0.001
14 *573:RN *3:57 0.001
15 *573:RN *3:103 20.962
16 *587:RN *3:46 0.001
17 *587:RN *3:101 25.9044
18 *588:RN *3:65 0.001
19 *588:RN *3:38 10.5394
20 *589:RN *3:47 0.001
21 *589:RN *3:101 21.0036
22 *605:RN *3:45 0.001
23 *605:RN *3:88 31.7332
24 *616:RN *3:49 0.001
25 *616:RN *3:87 29.6461
26 *619:RN *3:43 0.001
27 *619:RN *3:82 26.4704